Info: SIMULATION PARAMETERS:
Info: TIMESTEP               1
Info: NUMBER OF STEPS        0
Info: STEPS PER CYCLE        20
Info: FIRST LDB TIMESTEP     100
Info: LAST LDB TIMESTEP     -1
Info: HOM BACKGROUND SCALING 1
Info: MIN ATOMS PER PATCH    40
Info: INITIAL TEMPERATURE    300
Info: CENTER OF MASS MOVING INITIALLY? NO
Info: DIELECTRIC             1
Info: EXCLUDE                SCALED ONE-FOUR
Info: 1-4 ELECTROSTATICS SCALED BY 1
Info: MODIFIED 1-4 VDW PARAMETERS WILL BE USED
Info: DCD FILENAME           RFEP.dcd
Info: DCD FREQUENCY          10000
Info: DCD FIRST STEP         10000
Info: XST FILENAME           RFEP.xst
Info: XST FREQUENCY          10000
Info: NO VELOCITY DCD OUTPUT
Info: NO FORCE DCD OUTPUT
Info: OUTPUT FILENAME        RFEP
Info: BINARY OUTPUT FILES WILL BE USED
Info: RESTART FILENAME       RFEP.restart
Info: RESTART FREQUENCY      100000
Info: BINARY RESTART FILES WILL BE USED
Info: SWITCHING ACTIVE
Info: VDW FORCE SWITCHING ACTIVE
Info: SWITCHING ON           10
Info: SWITCHING OFF          12
Info: PAIRLIST DISTANCE      12
Info: PAIRLIST SHRINK RATE   0.01
Info: PAIRLIST GROW RATE     0.01
Info: PAIRLIST TRIGGER       0.3
Info: PAIRLISTS PER CYCLE    2
Info: PAIRLISTS ENABLED
Info: MARGIN                 0
Info: HYDROGEN GROUP CUTOFF  2.8
Info: PATCH DIMENSION        14.8
Info: ENERGY OUTPUT STEPS    10000
Info: CROSSTERM ENERGY INCLUDED IN DIHEDRAL
Info: TIMING OUTPUT STEPS    100000
Info: PRESSURE OUTPUT STEPS  10000
Info: COLLECTIVE VARIABLES CALCULATION REQUESTED
Info: COLLECTIVE VARIABLES CONFIGURATION   DBC-Restraint-RFEP.colvars
Info: LANGEVIN DYNAMICS ACTIVE
Info: LANGEVIN TEMPERATURE   300
Info: LANGEVIN USING BBK INTEGRATOR
Info: LANGEVIN DAMPING COEFFICIENT IS 1 INVERSE PS
Info: LANGEVIN DYNAMICS APPLIED TO HYDROGENS
Info: USING VERLET I (r-RESPA) MTS SCHEME.
Info: C1 SPLITTING OF LONG RANGE ELECTROSTATICS
Info: PLACING ATOMS IN PATCHES BY HYDROGEN GROUPS
Info: RIGID BONDS TO HYDROGEN : ALL
Info:         ERROR TOLERANCE : 1e-06
Info:          MAX ITERATIONS : 400
Info: RIGID WATER USING SETTLE ALGORITHM
Info: RANDOM NUMBER SEED     1655247256
Info: USE HYDROGEN BONDS?    NO
Info: COORDINATE PDB         PHEN.pdb
Info: STRUCTURE FILE         PHEN.psf
Info: PARAMETER file: CHARMM format!
Info: PARAMETERS             ../Force-field-parameters/par_all36_prot.prm
Info: PARAMETERS             ../Force-field-parameters/par_all36_carb.prm
Info: PARAMETERS             ../Force-field-parameters/par_all36_lipid.prm
Info: PARAMETERS             ../Force-field-parameters/par_all36_na.prm
Info: PARAMETERS             ../Force-field-parameters/par_all36_cgenff.prm
Info: USING ARITHMETIC MEAN TO COMBINE L-J SIGMA PARAMETERS
Info: SUMMARY OF PARAMETERS:
Info: 962 BONDS
Info: 2851 ANGLES
Info: 6992 DIHEDRAL
Info: 198 IMPROPER
Info: 6 CROSSTERM
Info: 342 VDW
Info: 75 VDW_PAIRS
Info: 0 NBTHOLE_PAIRS
Info: STRUCTURE SUMMARY:
Info: 13 ATOMS
Info: 13 BONDS
Info: 19 ANGLES
Info: 26 DIHEDRALS
Info: 0 IMPROPERS
Info: 0 CROSSTERMS
Info: 0 EXCLUSIONS
Info: 6 RIGID BONDS
Info: 33 DEGREES OF FREEDOM
Info: 7 HYDROGEN GROUPS
Info: 2 ATOMS IN LARGEST HYDROGEN GROUP
Info: 7 MIGRATION GROUPS
Info: 2 ATOMS IN LARGEST MIGRATION GROUP
Info: TOTAL MASS = 94.1134 amu
Info: TOTAL CHARGE = 1.49012e-08 e
Info: ADDED 55 IMPLICIT EXCLUSIONS
Info: NONBONDED TABLE R-SQUARED SPACING: 0.0625
Info: NONBONDED TABLE SIZE: 769 POINTS
Info: ORIGINAL ATOMS MINMAX IS -2.741 2.8 7  -1.454 8.01 11.599
Info: ADJUSTED ATOMS MINMAX IS -2.73488 2.46225 6.9935  -1.58613 7.61975 11.6085
Info: REMOVING COM VELOCITY -2.333 0.143299 1.62511
Info: Updated CUDA force table with 4096 elements.
Info: Updated CUDA LJ table with 342 x 342 elements.
Info: Found 12 unique exclusion lists needing 20 bytes
TCL: Minimizing for 1000 steps
ETITLE: TS BOND ANGLE DIHED IMPRP ELECT VDW BOUNDARY MISC KINETIC TOTAL TEMP POTENTIAL TOTAL3 TEMPAVG
ENERGY: 0 2.4015 0.5051 0.3994 0.0000 -10.0988 11.5361 0.0000 0.0000 0.0000 4.7432 0.0000 4.7432 4.7432 0.0000
ENERGY: 200 1.2407 1.6047 0.0482 0.0000 -9.5303 10.3919 0.0000 0.0000 0.0000 3.7552 0.0000 3.7552 3.7552 0.0000
ENERGY: 400 1.2915 0.0470 0.0040 0.0000 -9.6842 9.9941 0.0000 0.0000 0.0000 1.6524 0.0000 1.6524 1.6524 0.0000
ENERGY: 600 1.3965 0.0539 0.0019 0.0000 -9.6941 9.9111 0.0000 0.0000 0.0000 1.6693 0.0000 1.6693 1.6693 0.0000
ENERGY: 800 1.3064 0.0520 0.0015 0.0000 -9.6887 9.9811 0.0000 0.0000 0.0000 1.6521 0.0000 1.6521 1.6521 0.0000
ENERGY: 1000 1.3062 0.0460 0.0007 0.0000 -9.6793 9.9755 0.0000 0.0000 0.0000 1.6491 0.0000 1.6491 1.6491 0.0000
TCL: Running for 12300000 steps
ETITLE: TS BOND ANGLE DIHED IMPRP ELECT VDW BOUNDARY MISC KINETIC TOTAL TEMP POTENTIAL TOTAL3 TEMPAVG
ENERGY: 10000 2.6523 2.5061 4.0356 0.0000 -9.5574 9.4901 0.0000 0.1049 8.8119 18.0435 268.7471 9.2317 18.2151 291.2080
ENERGY: 2470000 3.3314 2.1399 2.4619 0.0000 -10.0488 9.0175 0.0000 0.3863 16.5382 23.8263 504.3871 7.2882 23.8981 283.6278
ENERGY: 4930000 3.1545 2.3398 5.6861 0.0000 -9.8180 10.9330 0.0000 0.8530 8.9134 22.0618 271.8434 13.1484 21.9165 274.9053
ENERGY: 7380000 4.2854 2.7777 1.3503 0.0000 -9.9142 10.2132 0.0000 1.3999 7.9046 18.0169 241.0764 10.1123 18.0301 260.4112
ENERGY: 9840000 4.5292 3.2975 2.4232 0.0000 -9.6153 9.7887 0.0000 0.2470 8.5460 19.2163 260.6403 10.6703 19.2289 327.0173
ENERGY: 12300000 3.4898 3.2072 1.9597 0.0000 -10.0763 9.3758 0.0000 0.0000 4.5793 12.5355 139.6598 7.9563 12.5850 268.8170
