Info: SIMULATION PARAMETERS:
Info: TIMESTEP               1
Info: NUMBER OF STEPS        0
Info: STEPS PER CYCLE        20
Info: FIRST LDB TIMESTEP     100
Info: LAST LDB TIMESTEP     -1
Info: HOM BACKGROUND SCALING 1
Info: MIN ATOMS PER PATCH    40
Info: INITIAL TEMPERATURE    300
Info: CENTER OF MASS MOVING INITIALLY? NO
Info: DIELECTRIC             1
Info: EXCLUDE                SCALED ONE-FOUR
Info: 1-4 ELECTROSTATICS SCALED BY 1
Info: MODIFIED 1-4 VDW PARAMETERS WILL BE USED
Info: DCD FILENAME           RFEP.dcd
Info: DCD FREQUENCY          10000
Info: DCD FIRST STEP         10000
Info: XST FILENAME           RFEP.xst
Info: XST FREQUENCY          10000
Info: NO VELOCITY DCD OUTPUT
Info: NO FORCE DCD OUTPUT
Info: OUTPUT FILENAME        RFEP
Info: BINARY OUTPUT FILES WILL BE USED
Info: RESTART FILENAME       RFEP.restart
Info: RESTART FREQUENCY      100000
Info: BINARY RESTART FILES WILL BE USED
Info: SWITCHING ACTIVE
Info: VDW FORCE SWITCHING ACTIVE
Info: SWITCHING ON           10
Info: SWITCHING OFF          12
Info: PAIRLIST DISTANCE      12
Info: PAIRLIST SHRINK RATE   0.01
Info: PAIRLIST GROW RATE     0.01
Info: PAIRLIST TRIGGER       0.3
Info: PAIRLISTS PER CYCLE    2
Info: PAIRLISTS ENABLED
Info: MARGIN                 0
Info: HYDROGEN GROUP CUTOFF  2.8
Info: PATCH DIMENSION        14.8
Info: ENERGY OUTPUT STEPS    10000
Info: CROSSTERM ENERGY INCLUDED IN DIHEDRAL
Info: TIMING OUTPUT STEPS    100000
Info: PRESSURE OUTPUT STEPS  10000
Info: COLLECTIVE VARIABLES CALCULATION REQUESTED
Info: COLLECTIVE VARIABLES CONFIGURATION   DBC-Restraint-RFEP.colvars
Info: LANGEVIN DYNAMICS ACTIVE
Info: LANGEVIN TEMPERATURE   300
Info: LANGEVIN USING BBK INTEGRATOR
Info: LANGEVIN DAMPING COEFFICIENT IS 1 INVERSE PS
Info: LANGEVIN DYNAMICS APPLIED TO HYDROGENS
Info: USING VERLET I (r-RESPA) MTS SCHEME.
Info: C1 SPLITTING OF LONG RANGE ELECTROSTATICS
Info: PLACING ATOMS IN PATCHES BY HYDROGEN GROUPS
Info: RIGID BONDS TO HYDROGEN : ALL
Info:         ERROR TOLERANCE : 1e-06
Info:          MAX ITERATIONS : 400
Info: RIGID WATER USING SETTLE ALGORITHM
Info: RANDOM NUMBER SEED     1655244630
Info: USE HYDROGEN BONDS?    NO
Info: COORDINATE PDB         PHEN.pdb
Info: STRUCTURE FILE         PHEN.psf
Info: PARAMETER file: CHARMM format!
Info: PARAMETERS             ../Force-field-parameters/par_all36_prot.prm
Info: PARAMETERS             ../Force-field-parameters/par_all36_carb.prm
Info: PARAMETERS             ../Force-field-parameters/par_all36_lipid.prm
Info: PARAMETERS             ../Force-field-parameters/par_all36_na.prm
Info: PARAMETERS             ../Force-field-parameters/par_all36_cgenff.prm
Info: USING ARITHMETIC MEAN TO COMBINE L-J SIGMA PARAMETERS
Info: SUMMARY OF PARAMETERS:
Info: 962 BONDS
Info: 2851 ANGLES
Info: 6992 DIHEDRAL
Info: 198 IMPROPER
Info: 6 CROSSTERM
Info: 342 VDW
Info: 75 VDW_PAIRS
Info: 0 NBTHOLE_PAIRS
Info: STRUCTURE SUMMARY:
Info: 13 ATOMS
Info: 13 BONDS
Info: 19 ANGLES
Info: 26 DIHEDRALS
Info: 0 IMPROPERS
Info: 0 CROSSTERMS
Info: 0 EXCLUSIONS
Info: 6 RIGID BONDS
Info: 33 DEGREES OF FREEDOM
Info: 7 HYDROGEN GROUPS
Info: 2 ATOMS IN LARGEST HYDROGEN GROUP
Info: 7 MIGRATION GROUPS
Info: 2 ATOMS IN LARGEST MIGRATION GROUP
Info: TOTAL MASS = 94.1134 amu
Info: TOTAL CHARGE = 1.49012e-08 e
Info: ADDED 55 IMPLICIT EXCLUSIONS
Info: NONBONDED TABLE R-SQUARED SPACING: 0.0625
Info: NONBONDED TABLE SIZE: 769 POINTS
Info: ORIGINAL ATOMS MINMAX IS -2.741 2.8 7  -1.454 8.01 11.599
Info: ADJUSTED ATOMS MINMAX IS -2.73488 2.46225 6.9935  -1.58613 7.61975 11.6085
Info: REMOVING COM VELOCITY -0.776691 -1.46218 0.0552544
Info: Updated CUDA force table with 4096 elements.
Info: Updated CUDA LJ table with 342 x 342 elements.
Info: Found 12 unique exclusion lists needing 20 bytes
TCL: Minimizing for 1000 steps
ETITLE: TS BOND ANGLE DIHED IMPRP ELECT VDW BOUNDARY MISC KINETIC TOTAL TEMP POTENTIAL TOTAL3 TEMPAVG
ENERGY: 0 2.4015 0.5051 0.3994 0.0000 -10.0988 11.5361 0.0000 0.0000 0.0000 4.7432 0.0000 4.7432 4.7432 0.0000
ENERGY: 200 1.2407 1.6047 0.0482 0.0000 -9.5303 10.3919 0.0000 0.0000 0.0000 3.7552 0.0000 3.7552 3.7552 0.0000
ENERGY: 400 1.2915 0.0470 0.0040 0.0000 -9.6842 9.9941 0.0000 0.0000 0.0000 1.6524 0.0000 1.6524 1.6524 0.0000
ENERGY: 600 1.3965 0.0539 0.0019 0.0000 -9.6941 9.9111 0.0000 0.0000 0.0000 1.6693 0.0000 1.6693 1.6693 0.0000
ENERGY: 800 1.3064 0.0520 0.0015 0.0000 -9.6887 9.9811 0.0000 0.0000 0.0000 1.6521 0.0000 1.6521 1.6521 0.0000
ENERGY: 1000 1.3062 0.0460 0.0007 0.0000 -9.6793 9.9755 0.0000 0.0000 0.0000 1.6491 0.0000 1.6491 1.6491 0.0000
TCL: Running for 12300000 steps
ETITLE: TS BOND ANGLE DIHED IMPRP ELECT VDW BOUNDARY MISC KINETIC TOTAL TEMP POTENTIAL TOTAL3 TEMPAVG
ENERGY: 10000 1.7472 3.7483 5.1997 0.0000 -9.6201 10.5399 0.0000 0.0000 9.8971 21.5121 301.8443 11.6151 21.4728 303.4052
ENERGY: 2470000 3.2382 2.7532 5.9792 0.0000 -10.2446 10.7180 0.0000 0.0000 10.0446 22.4886 306.3424 12.4440 22.5230 278.6890
ENERGY: 4930000 3.1141 4.3112 2.5571 0.0000 -10.0422 10.9235 0.0000 0.2421 12.4407 23.5466 379.4218 11.1059 23.5499 323.1637
ENERGY: 7380000 3.2247 1.7889 1.8101 0.0000 -9.6321 9.2046 0.0000 1.1758 10.3922 17.9641 316.9460 7.5719 17.8670 279.9099
ENERGY: 9840000 3.0548 2.0556 2.3144 0.0000 -9.6237 9.3566 0.0000 0.0438 6.6421 13.8436 202.5718 7.2015 13.8765 301.8093
ENERGY: 12300000 3.0211 4.1761 1.7782 0.0000 -10.4292 11.9930 0.0000 0.0000 11.1838 21.7230 341.0872 10.5392 21.6458 299.5207
