Info: SIMULATION PARAMETERS:
Info: TIMESTEP               1
Info: NUMBER OF STEPS        0
Info: STEPS PER CYCLE        20
Info: PERIODIC CELL BASIS 1  20 0 0
Info: PERIODIC CELL BASIS 2  0 20 0
Info: PERIODIC CELL BASIS 3  0 0 20
Info: PERIODIC CELL CENTER   0 0 0
Info: WRAPPING WATERS AROUND PERIODIC BOUNDARIES ON OUTPUT.
Info: FIRST LDB TIMESTEP     100
Info: LAST LDB TIMESTEP     -1
Info: HOM BACKGROUND SCALING 1
Info: PME BACKGROUND SCALING 1
Info: MIN ATOMS PER PATCH    40
Info: INITIAL TEMPERATURE    300
Info: CENTER OF MASS MOVING INITIALLY? NO
Info: DIELECTRIC             1
Info: EXCLUDE                SCALED ONE-FOUR
Info: 1-4 ELECTROSTATICS SCALED BY 1
Info: MODIFIED 1-4 VDW PARAMETERS WILL BE USED
Info: DCD FILENAME           ./output/AFEP-Hyd-02.dcd
Info: DCD FREQUENCY          5000
Info: DCD FIRST STEP         5000
Info: DCD FILE WILL CONTAIN UNIT CELL DATA
Info: XST FILENAME           ./output/AFEP-Hyd-02.xst
Info: XST FREQUENCY          5000
Info: NO VELOCITY DCD OUTPUT
Info: NO FORCE DCD OUTPUT
Info: OUTPUT FILENAME        ./output/AFEP-Hyd-02
Info: BINARY OUTPUT FILES WILL BE USED
Info: RESTART FILENAME       ./output/AFEP-Hyd-02.restart
Info: RESTART FREQUENCY      50000
Info: BINARY RESTART FILES WILL BE USED
Info: SWITCHING ACTIVE
Info: VDW FORCE SWITCHING ACTIVE
Info: SWITCHING ON           10
Info: SWITCHING OFF          12
Info: PAIRLIST DISTANCE      12
Info: PAIRLIST SHRINK RATE   0.01
Info: PAIRLIST GROW RATE     0.01
Info: PAIRLIST TRIGGER       0.3
Info: PAIRLISTS PER CYCLE    2
Info: PAIRLISTS ENABLED
Info: MARGIN                 1
Info: HYDROGEN GROUP CUTOFF  2.8
Info: PATCH DIMENSION        15.8
Info: ENERGY OUTPUT STEPS    5000
Info: CROSSTERM ENERGY INCLUDED IN DIHEDRAL
Info: TIMING OUTPUT STEPS    50000
Info: PRESSURE OUTPUT STEPS  5000
Info: ALCHEMICAL FEP ON
Info: FEP CURRENT LAMBDA VALUE     0
Info: FEP COMPARISON LAMBDA VALUE  0.05
Info: FEP INTRA-ALCHEMICAL NON-BONDED INTERACTIONS WILL BE RETAINED
Info: FEP INTRA-ALCHEMICAL BONDED INTERACTIONS WILL BE RETAINED
Info: FEP VDW SHIFTING COEFFICIENT 6.8
Info: FEP ELEC. ACTIVE FOR ANNIHILATED PARTICLES BETWEEN LAMBDA = 0 AND LAMBDA = 0.5
Info: FEP ELEC. ACTIVE FOR EXNIHILATED PARTICLES BETWEEN LAMBDA = 0.5 AND LAMBDA = 1
Info: FEP VDW ACTIVE FOR ANNIHILATED PARTICLES BETWEEN LAMBDA = 0 AND LAMBDA = 1
Info: FEP VDW ACTIVE FOR EXNIHILATED PARTICLES BETWEEN LAMBDA = 0 AND LAMBDA = 1
Info: FEP BOND ACTIVE FOR ANNIHILATED PARTICLES BETWEEN LAMBDA = 1 AND LAMBDA = 1
Info: FEP BOND ACTIVE FOR EXNIHILATED PARTICLES BETWEEN LAMBDA = 0 AND LAMBDA = 0
Info: LANGEVIN DYNAMICS ACTIVE
Info: LANGEVIN TEMPERATURE   300
Info: LANGEVIN USING BBK INTEGRATOR
Info: LANGEVIN DAMPING COEFFICIENT IS 1 INVERSE PS
Info: LANGEVIN DYNAMICS APPLIED TO HYDROGENS
Info: LANGEVIN PISTON PRESSURE CONTROL ACTIVE
Info:        TARGET PRESSURE IS 1.01325 BAR
Info:     OSCILLATION PERIOD IS 100 FS
Info:             DECAY TIME IS 50 FS
Info:     PISTON TEMPERATURE IS 300 K
Info:       PRESSURE CONTROL IS GROUP-BASED
Info:    INITIAL STRAIN RATE IS 0 0 0
Info:       CELL FLUCTUATION IS ISOTROPIC
Info: PARTICLE MESH EWALD (PME) ACTIVE
Info: PME TOLERANCE               1e-05
Info: PME EWALD COEFFICIENT       0.226635
Info: PME INTERPOLATION ORDER     4
Info: PME GRID DIMENSIONS         20 20 20
Info: PME MAXIMUM GRID SPACING    1
Info: FULL ELECTROSTATIC EVALUATION FREQUENCY      2
Info: USING VERLET I (r-RESPA) MTS SCHEME.
Info: C1 SPLITTING OF LONG RANGE ELECTROSTATICS
Info: PLACING ATOMS IN PATCHES BY HYDROGEN GROUPS
Info: RIGID BONDS TO HYDROGEN : ALL
Info:         ERROR TOLERANCE : 1e-06
Info:          MAX ITERATIONS : 400
Info: RIGID WATER USING SETTLE ALGORITHM
Info: RANDOM NUMBER SEED     1659980921
Info: USE HYDROGEN BONDS?    NO
Info: COORDINATE PDB         PHEN-solv.pdb
Info: STRUCTURE FILE         PHEN-solv.psf
Info: PARAMETER file: CHARMM format!
Info: PARAMETERS             ../common/CHARMM36m_FF/par_all36_prot.prm
Info: PARAMETERS             ../common/CHARMM36m_FF/par_all36_carb.prm
Info: PARAMETERS             ../common/CHARMM36m_FF/par_all36_lipid.prm
Info: PARAMETERS             ../common/CHARMM36m_FF/par_all36_na.prm
Info: PARAMETERS             ../common/CHARMM36m_FF/par_all36_cgenff.prm
Info: PARAMETERS             ../common/CHARMM36m_FF/toppar_water_ions_namd.str
Info: USING ARITHMETIC MEAN TO COMBINE L-J SIGMA PARAMETERS
Info: SKIPPING rtf SECTION IN STREAM FILE
Info: SUMMARY OF PARAMETERS:
Info: 965 BONDS
Info: 2852 ANGLES
Info: 6992 DIHEDRAL
Info: 198 IMPROPER
Info: 6 CROSSTERM
Info: 357 VDW
Info: 81 VDW_PAIRS
Info: 0 NBTHOLE_PAIRS
Info: To read alchdata from file: PHEN-solv.fep
Info: To read alchflag data from column: 5
Info: STRUCTURE SUMMARY:
Info: 889 ATOMS
Info: 597 BONDS
Info: 311 ANGLES
Info: 26 DIHEDRALS
Info: 0 IMPROPERS
Info: 0 CROSSTERMS
Info: 0 EXCLUSIONS
Info: 882 RIGID BONDS
Info: ALCH: 13 ATOMS TO DISAPPEAR IN FINAL STATE
Info: ALCH: 0 ATOMS TO APPEAR IN FINAL STATE
Info: 1785 DEGREES OF FREEDOM
Info: 299 HYDROGEN GROUPS
Info: 3 ATOMS IN LARGEST HYDROGEN GROUP
Info: 299 MIGRATION GROUPS
Info: 3 ATOMS IN LARGEST MIGRATION GROUP
Info: TOTAL MASS = 5354.61 amu
Info: TOTAL CHARGE = 1.49012e-08 e
Info: MASS DENSITY = 1.11147 g/cm^3
Info: ATOM DENSITY = 0.111125 atoms/A^3
Info: ADDED 931 IMPLICIT EXCLUSIONS
Info: NONBONDED TABLE R-SQUARED SPACING: 0.0625
Info: NONBONDED TABLE SIZE: 769 POINTS
Info: REMOVING COM VELOCITY 0.313597 0.389126 -0.156477
TCL: Minimizing for 1000 steps
ETITLE: TS BOND ANGLE DIHED IMPRP ELECT VDW BOUNDARY MISC KINETIC TOTAL TEMP POTENTIAL TOTAL3 TEMPAVG PRESSURE GPRESSURE VOLUME PRESSAVG GPRESSAVG
ENERGY: 0 2.4015 0.5051 0.3994 0.0000 -1933.7448 99999999999.9999 0.0000 0.0000 0.0000 99999999999.9999 0.0000 99999999999.9999 99999999999.9999 0.0000 99999999999.9999 99999999999.9999 8000.0000 99999999999.9999 99999999999.9999
ENERGY: 200 2.4916 0.6311 0.6336 0.0000 -3574.7029 419.8167 0.0000 0.0000 0.0000 -3151.1299 0.0000 -3151.1299 -3151.1299 0.0000 27368.8958 25418.1911 8000.0000 27368.8958 25418.1911
ENERGY: 400 6.3270 3.2852 0.8840 0.0000 -3786.4698 429.1922 0.0000 0.0000 0.0000 -3346.7814 0.0000 -3346.7814 -3346.7814 0.0000 27580.1519 25153.9716 8000.0000 27580.1519 25153.9716
ENERGY: 600 1.8734 0.2046 1.3624 0.0000 -3902.0933 458.2747 0.0000 0.0000 0.0000 -3440.3783 0.0000 -3440.3783 -3440.3783 0.0000 28141.3033 26028.1531 8000.0000 28141.3033 26028.1531
ENERGY: 800 1.1479 0.1160 1.0111 0.0000 -3959.6049 478.4774 0.0000 0.0000 0.0000 -3478.8524 0.0000 -3478.8524 -3478.8524 0.0000 28774.5980 26597.6285 8000.0000 28774.5980 26597.6285
ENERGY: 1000 3.0585 0.5076 0.8147 0.0000 -3994.4754 486.4248 0.0000 0.0000 0.0000 -3503.6698 0.0000 -3503.6698 -3503.6698 0.0000 28925.6025 26724.8731 8000.0000 28925.6025 26724.8731
TCL: Running FEP window   1: Lambda1 0.0    Lambda2 0.05   [dLambda 0.05  ]
TCL: Setting parameter firsttimestep to 0
TCL: Setting parameter alchLambda to 0.0
Info: NONBONDED TABLE R-SQUARED SPACING: 0.0625
Info: NONBONDED TABLE SIZE: 769 POINTS
TCL: Setting parameter alchLambda2 to 0.05
Info: NONBONDED TABLE R-SQUARED SPACING: 0.0625
Info: NONBONDED TABLE SIZE: 769 POINTS
TCL: Running for 55000 steps
ETITLE: TS BOND ANGLE DIHED IMPRP ELECT VDW BOUNDARY MISC KINETIC TOTAL TEMP POTENTIAL TOTAL3 TEMPAVG PRESSURE GPRESSURE VOLUME PRESSAVG GPRESSAVG
ENERGY: 0 3.0585 0.5076 0.8147 0.0000 -3994.4754 486.4248 0.0000 0.0000 522.7026 -2980.9672 294.7181 -3503.6698 -2981.0600 294.7181 434.1648 457.1985 8000.0000 434.1648 457.1985
ENERGY: 10000 3.7756 4.1210 3.7466 0.0000 -3169.1951 295.4283 0.0000 0.0000 528.8526 -2333.2710 298.1857 -2862.1236 -2333.2054 298.2563 -847.1896 -847.9461 8897.2395 15.7653 14.1797
ENERGY: 20000 1.4523 6.5683 2.9991 0.0000 -3145.6426 320.1043 0.0000 0.0000 523.9518 -2290.5668 295.4225 -2814.5186 -2289.8255 302.3392 292.2847 249.2160 8979.4916 -5.5863 -6.9801
ENERGY: 35000 3.0338 2.8302 2.3869 0.0000 -3204.3363 313.3542 0.0000 0.0000 522.7778 -2359.9534 294.7605 -2882.7313 -2360.4478 303.2346 -814.4956 -687.5961 9104.6294 13.9585 10.9595
ENERGY: 45000 3.2922 6.1506 1.7120 0.0000 -3136.8246 276.9393 0.0000 0.0000 497.0286 -2351.7019 280.2422 -2848.7305 -2351.7669 298.7162 -1248.1690 -1158.0360 8880.3955 -0.4089 1.8439
ENERGY: 55000 1.3985 4.2267 3.7151 0.0000 -3172.5798 326.0731 0.0000 0.0000 514.4696 -2322.6970 290.0760 -2837.1665 -2322.9534 301.7950 948.1234 920.4545 8678.0392 3.0985 1.8216
TCL: Setting parameter alchEquilSteps to 500
TCL: Running FEP window   2: Lambda1 0.05   Lambda2 0.1    [dLambda 0.05  ]
TCL: Setting parameter firsttimestep to 0
TCL: Setting parameter alchLambda to 0.05
Info: NONBONDED TABLE R-SQUARED SPACING: 0.0625
Info: NONBONDED TABLE SIZE: 769 POINTS
TCL: Setting parameter alchLambda2 to 0.1
Info: NONBONDED TABLE R-SQUARED SPACING: 0.0625
Info: NONBONDED TABLE SIZE: 769 POINTS
TCL: Running for 50500 steps
ETITLE: TS BOND ANGLE DIHED IMPRP ELECT VDW BOUNDARY MISC KINETIC TOTAL TEMP POTENTIAL TOTAL3 TEMPAVG PRESSURE GPRESSURE VOLUME PRESSAVG GPRESSAVG
ENERGY: 0 1.3985 4.2267 3.7151 0.0000 -3171.7166 326.1699 0.0000 0.0000 514.3355 -2321.8710 290.0005 -2836.2065 -2321.9084 290.0005 821.2660 875.1558 8678.0392 821.2660 875.1558
ENERGY: 10000 4.0851 2.5142 1.7896 0.0000 -3170.2547 320.4185 0.0000 0.0000 521.4783 -2319.9690 294.0278 -2841.4473 -2320.4578 301.1678 -554.3053 -423.5612 9005.5613 3.0359 4.3505
ENERGY: 20000 2.1842 2.5914 2.9606 0.0000 -3154.1334 284.0268 0.0000 0.0000 540.0595 -2322.3108 304.5045 -2862.3703 -2321.4118 298.8048 -1099.3353 -992.7725 8818.2115 -15.1261 -13.1487
ENERGY: 30000 2.0534 2.0424 2.7764 0.0000 -3228.6770 330.6102 0.0000 0.0000 521.7940 -2369.4006 294.2058 -2891.1946 -2369.7864 297.9991 489.4710 639.8293 8584.6915 15.4152 14.2642
ENERGY: 40000 1.5958 2.6179 3.0278 0.0000 -3117.7777 287.6466 0.0000 0.0000 538.3925 -2284.4971 303.5646 -2822.8895 -2284.6649 301.4908 -734.2067 -645.8989 9022.6598 0.0765 -0.5276
ENERGY: 50000 6.4941 3.6966 4.3733 0.0000 -3176.5623 320.2676 0.0000 0.0000 527.0292 -2314.7015 297.1576 -2841.7307 -2314.1180 296.2371 -35.1913 57.2993 8794.4467 1.6111 1.7869
TCL: Running FEP window   3: Lambda1 0.1    Lambda2 0.15000000000000002 [dLambda 0.05000000000000002]
TCL: Setting parameter firsttimestep to 0
TCL: Setting parameter alchLambda to 0.1
Info: NONBONDED TABLE R-SQUARED SPACING: 0.0625
Info: NONBONDED TABLE SIZE: 769 POINTS
TCL: Setting parameter alchLambda2 to 0.15000000000000002
Info: NONBONDED TABLE R-SQUARED SPACING: 0.0625
Info: NONBONDED TABLE SIZE: 769 POINTS
TCL: Setting parameter alchLambdaIDWS to 0.05
Info: NONBONDED TABLE R-SQUARED SPACING: 0.0625
Info: NONBONDED TABLE SIZE: 769 POINTS
TCL: Running for 50500 steps
ETITLE: TS BOND ANGLE DIHED IMPRP ELECT VDW BOUNDARY MISC KINETIC TOTAL TEMP POTENTIAL TOTAL3 TEMPAVG PRESSURE GPRESSURE VOLUME PRESSAVG GPRESSAVG
ENERGY: 0 2.6553 2.6750 3.4030 0.0000 -3216.8268 348.0919 0.0000 0.0000 552.6485 -2307.3532 311.6027 -2860.0017 -2307.1120 301.1757 1040.0409 1093.6208 8626.8453 -51.7227 -46.6080
ENERGY: 10000 1.4667 1.6438 2.1102 0.0000 -3162.4451 306.0750 0.0000 0.0000 525.7605 -2325.3889 296.4422 -2851.1494 -2324.7230 297.8648 -386.4083 -236.4596 8773.7603 43.9473 43.4329
ENERGY: 20000 4.2759 3.9421 3.9678 0.0000 -3170.8811 309.8647 0.0000 0.0000 506.1485 -2342.6821 285.3843 -2848.8306 -2342.6030 298.7413 -463.8396 -530.1466 8924.4522 9.4350 6.5313
ENERGY: 30000 2.4665 2.3241 1.3954 0.0000 -3133.8569 292.9721 0.0000 0.0000 509.3586 -2325.3402 287.1943 -2834.6988 -2325.1807 303.9528 -768.5290 -843.3654 8965.0635 -20.0290 -21.8196
ENERGY: 40000 3.5741 1.3247 1.5440 0.0000 -3171.3561 319.3501 0.0000 0.0000 553.9853 -2291.5779 312.3564 -2845.5632 -2291.6371 296.9635 -90.4237 -21.8862 8863.2685 1.2160 2.3908
ENERGY: 50000 3.5015 3.8086 3.0996 0.0000 -3176.5125 304.6920 0.0000 0.0000 525.3148 -2336.0960 296.1910 -2861.4108 -2335.7830 299.2217 -917.2868 -951.7243 8791.6982 9.1797 8.8244
TCL: Running FEP window   4: Lambda1 0.15000000000000002 Lambda2 0.2    [dLambda 0.04999999999999999]
TCL: Setting parameter firsttimestep to 0
TCL: Setting parameter alchLambda to 0.15000000000000002
Info: NONBONDED TABLE R-SQUARED SPACING: 0.0625
Info: NONBONDED TABLE SIZE: 769 POINTS
TCL: Setting parameter alchLambda2 to 0.2
Info: NONBONDED TABLE R-SQUARED SPACING: 0.0625
Info: NONBONDED TABLE SIZE: 769 POINTS
TCL: Setting parameter alchLambdaIDWS to 0.1
Info: NONBONDED TABLE R-SQUARED SPACING: 0.0625
Info: NONBONDED TABLE SIZE: 769 POINTS
TCL: Running for 50500 steps
ETITLE: TS BOND ANGLE DIHED IMPRP ELECT VDW BOUNDARY MISC KINETIC TOTAL TEMP POTENTIAL TOTAL3 TEMPAVG PRESSURE GPRESSURE VOLUME PRESSAVG GPRESSAVG
ENERGY: 0 2.2096 2.2411 1.5517 0.0000 -3212.2594 324.1652 0.0000 0.0000 523.1553 -2358.9365 294.9734 -2882.0918 -2358.5967 296.9112 -75.2167 -55.2464 8692.5598 39.4019 47.4227
ENERGY: 10000 3.1842 2.6947 1.8140 0.0000 -3193.4357 328.1830 0.0000 0.0000 543.1877 -2314.3722 306.2683 -2857.5599 -2313.8027 303.2530 -424.9326 -394.9962 8932.7491 11.7029 12.4809
ENERGY: 20000 2.6407 1.4009 2.1709 0.0000 -3192.9588 365.6034 0.0000 0.0000 526.9724 -2294.1705 297.1256 -2821.1428 -2294.2204 302.4606 1700.3804 1649.3555 8844.8696 -9.1828 -4.9027
ENERGY: 30000 2.7245 3.2797 2.1852 0.0000 -3118.9706 303.1083 0.0000 0.0000 559.2301 -2248.4427 315.3136 -2807.6728 -2248.9206 302.9358 -193.0264 -31.3656 8878.4090 0.2721 0.5730
ENERGY: 40000 4.2099 2.2060 2.4146 0.0000 -3146.7450 283.5843 0.0000 0.0000 535.0196 -2319.3105 301.6629 -2854.3301 -2318.3149 296.0893 -1673.3852 -1626.3046 9052.3662 19.3193 18.6676
ENERGY: 50000 3.5222 2.1111 0.7836 0.0000 -3111.9115 300.3760 0.0000 0.0000 512.3677 -2292.7508 288.8910 -2805.1185 -2292.1003 300.1396 62.6496 54.5847 8815.5884 29.0167 28.8359
TCL: Running FEP window   5: Lambda1 0.2    Lambda2 0.25   [dLambda 0.04999999999999999]
TCL: Setting parameter firsttimestep to 0
TCL: Setting parameter alchLambda to 0.2
Info: NONBONDED TABLE R-SQUARED SPACING: 0.0625
Info: NONBONDED TABLE SIZE: 769 POINTS
TCL: Setting parameter alchLambda2 to 0.25
Info: NONBONDED TABLE R-SQUARED SPACING: 0.0625
Info: NONBONDED TABLE SIZE: 769 POINTS
TCL: Setting parameter alchLambdaIDWS to 0.15000000000000002
Info: NONBONDED TABLE R-SQUARED SPACING: 0.0625
Info: NONBONDED TABLE SIZE: 769 POINTS
TCL: Running for 50500 steps
ETITLE: TS BOND ANGLE DIHED IMPRP ELECT VDW BOUNDARY MISC KINETIC TOTAL TEMP POTENTIAL TOTAL3 TEMPAVG PRESSURE GPRESSURE VOLUME PRESSAVG GPRESSAVG
ENERGY: 0 1.4332 2.6744 2.4308 0.0000 -3192.2552 337.4778 0.0000 0.0000 533.7196 -2314.5194 300.9299 -2848.2390 -2314.2072 301.4458 737.0190 760.2884 8725.4826 10.3754 16.2783
ENERGY: 10000 0.6423 1.7897 3.0882 0.0000 -3144.7344 309.0182 0.0000 0.0000 546.4584 -2283.7375 308.1125 -2830.1960 -2283.5491 310.5389 106.3017 143.3207 8919.6087 -27.2929 -28.6264
ENERGY: 20000 2.5806 2.5248 2.8413 0.0000 -3162.8038 294.5364 0.0000 0.0000 551.8807 -2308.4400 311.1697 -2860.3207 -2307.6097 296.9771 -671.1473 -608.1286 8691.2414 16.5338 17.7304
ENERGY: 30000 1.9573 3.9108 0.9062 0.0000 -3174.9124 302.4007 0.0000 0.0000 513.4718 -2352.2656 289.5135 -2865.7374 -2352.1638 292.2883 -672.8408 -612.1512 8769.9802 21.4648 22.0929
ENERGY: 40000 2.4331 1.3711 4.0217 0.0000 -3217.8759 321.6474 0.0000 0.0000 531.9589 -2356.4437 299.9371 -2888.4025 -2356.6880 303.4061 -139.8770 -142.0451 8639.5445 12.3013 12.6708
ENERGY: 50000 4.2429 2.4748 2.3296 0.0000 -3193.1229 331.6930 0.0000 0.0000 532.6511 -2319.7314 300.3274 -2852.3825 -2319.9319 299.7261 755.5822 877.4803 8629.6658 7.3530 6.1536
TCL: Running FEP window   6: Lambda1 0.25   Lambda2 0.3    [dLambda 0.04999999999999999]
TCL: Setting parameter firsttimestep to 0
TCL: Setting parameter alchLambda to 0.25
Info: NONBONDED TABLE R-SQUARED SPACING: 0.0625
Info: NONBONDED TABLE SIZE: 769 POINTS
TCL: Setting parameter alchLambda2 to 0.3
Info: NONBONDED TABLE R-SQUARED SPACING: 0.0625
Info: NONBONDED TABLE SIZE: 769 POINTS
TCL: Setting parameter alchLambdaIDWS to 0.2
Info: NONBONDED TABLE R-SQUARED SPACING: 0.0625
Info: NONBONDED TABLE SIZE: 769 POINTS
TCL: Running for 50500 steps
ETITLE: TS BOND ANGLE DIHED IMPRP ELECT VDW BOUNDARY MISC KINETIC TOTAL TEMP POTENTIAL TOTAL3 TEMPAVG PRESSURE GPRESSURE VOLUME PRESSAVG GPRESSAVG
ENERGY: 0 3.4316 1.4722 3.1937 0.0000 -3249.2652 367.4615 0.0000 0.0000 554.9501 -2318.7561 312.9004 -2873.7062 -2318.4627 305.3987 1062.8588 1096.9571 8756.1557 40.6174 45.7238
ENERGY: 10000 5.9230 3.3919 2.9710 0.0000 -3136.8140 310.8360 0.0000 0.0000 523.0249 -2290.6671 294.8998 -2813.6920 -2289.6667 302.1824 -981.4753 -722.1608 8795.5001 2.2327 4.7936
ENERGY: 20000 3.1160 2.7890 1.6900 0.0000 -3146.7326 306.7864 0.0000 0.0000 536.2903 -2296.0609 302.3793 -2832.3511 -2296.0286 297.7239 -229.4237 -214.8726 8785.6192 4.5370 4.6213
ENERGY: 30000 1.1944 7.6952 2.9022 0.0000 -3217.8584 337.6227 0.0000 0.0000 548.7503 -2319.6937 309.4047 -2868.4440 -2319.4120 308.8189 649.8673 626.6173 8639.5562 -1.0140 -0.3525
ENERGY: 40000 2.8051 4.5792 1.1298 0.0000 -3152.2441 293.1280 0.0000 0.0000 514.1201 -2336.4819 289.8790 -2850.6021 -2336.5728 300.2138 -477.5013 -532.3129 8710.5866 31.1451 32.7545
ENERGY: 50000 1.4766 2.0100 6.3033 0.0000 -3110.9264 288.2664 0.0000 0.0000 544.9328 -2267.9373 307.2523 -2812.8701 -2266.8472 297.2956 -510.8752 -445.6825 8770.1793 18.6950 19.6063
TCL: Running FEP window   7: Lambda1 0.3    Lambda2 0.35   [dLambda 0.04999999999999999]
TCL: Setting parameter firsttimestep to 0
TCL: Setting parameter alchLambda to 0.3
Info: NONBONDED TABLE R-SQUARED SPACING: 0.0625
Info: NONBONDED TABLE SIZE: 769 POINTS
TCL: Setting parameter alchLambda2 to 0.35
Info: NONBONDED TABLE R-SQUARED SPACING: 0.0625
Info: NONBONDED TABLE SIZE: 769 POINTS
TCL: Setting parameter alchLambdaIDWS to 0.25
Info: NONBONDED TABLE R-SQUARED SPACING: 0.0625
Info: NONBONDED TABLE SIZE: 769 POINTS
TCL: Running for 50500 steps
ETITLE: TS BOND ANGLE DIHED IMPRP ELECT VDW BOUNDARY MISC KINETIC TOTAL TEMP POTENTIAL TOTAL3 TEMPAVG PRESSURE GPRESSURE VOLUME PRESSAVG GPRESSAVG
ENERGY: 0 6.2980 4.1499 7.2264 0.0000 -3119.1916 285.6576 0.0000 0.0000 528.3678 -2287.4919 297.9123 -2815.8597 -2287.5066 306.9516 -1860.3154 -1812.8417 8919.7931 -3.4716 -10.6810
ENERGY: 10000 2.9162 2.0983 3.6197 0.0000 -3153.5507 301.7420 0.0000 0.0000 516.9343 -2326.2403 291.4658 -2843.1746 -2325.8022 299.2427 -729.4104 -659.5475 8783.5059 17.4909 19.0511
ENERGY: 20000 5.5433 2.9499 0.8345 0.0000 -3124.1571 301.7117 0.0000 0.0000 542.7944 -2270.3234 306.0466 -2813.1177 -2270.2104 301.6604 -760.4149 -760.3298 8981.3212 18.7389 18.3873
ENERGY: 30000 4.1463 3.0992 2.8932 0.0000 -3120.9596 308.1586 0.0000 0.0000 538.2783 -2264.3841 303.5002 -2802.6624 -2263.9852 305.8137 -297.3220 -372.5790 8938.9559 27.4765 28.0683
ENERGY: 40000 2.5735 1.7660 4.6029 0.0000 -3141.7838 321.4401 0.0000 0.0000 523.6809 -2287.7205 295.2697 -2811.4013 -2287.5218 297.4822 -316.5537 -159.6873 8997.3058 17.8461 18.6908
ENERGY: 50000 3.0623 5.3156 2.3845 0.0000 -3147.5701 300.7760 0.0000 0.0000 526.3220 -2309.7097 296.7589 -2836.0317 -2309.7042 303.2493 -549.1358 -590.8431 8816.4492 20.3228 20.5818
TCL: Running FEP window   8: Lambda1 0.35   Lambda2 0.39999999999999997 [dLambda 0.04999999999999999]
TCL: Setting parameter firsttimestep to 0
TCL: Setting parameter alchLambda to 0.35
Info: NONBONDED TABLE R-SQUARED SPACING: 0.0625
Info: NONBONDED TABLE SIZE: 769 POINTS
TCL: Setting parameter alchLambda2 to 0.39999999999999997
Info: NONBONDED TABLE R-SQUARED SPACING: 0.0625
Info: NONBONDED TABLE SIZE: 769 POINTS
TCL: Setting parameter alchLambdaIDWS to 0.3
Info: NONBONDED TABLE R-SQUARED SPACING: 0.0625
Info: NONBONDED TABLE SIZE: 769 POINTS
TCL: Running for 50500 steps
ETITLE: TS BOND ANGLE DIHED IMPRP ELECT VDW BOUNDARY MISC KINETIC TOTAL TEMP POTENTIAL TOTAL3 TEMPAVG PRESSURE GPRESSURE VOLUME PRESSAVG GPRESSAVG
ENERGY: 0 3.8412 2.8331 3.8582 0.0000 -3153.3039 295.6040 0.0000 0.0000 495.5581 -2351.6093 279.4131 -2847.1674 -2351.3892 298.7095 -1029.9283 -1008.2815 8740.9045 -3.5405 6.1209
ENERGY: 5000 3.1731 1.0309 1.5442 0.0000 -3137.3633 331.3418 0.0000 0.0000 516.9226 -2283.3508 291.4591 -2800.2734 -2283.0252 295.6430 -5.2217 291.6483 8864.1899 4.5261 1.8979
ENERGY: 10000 4.3146 2.2755 1.1646 0.0000 -3169.6885 305.8723 0.0000 0.0000 523.1192 -2332.9423 294.9530 -2856.0614 -2332.0477 297.9101 -524.4889 -507.7413 8633.1069 3.4498 3.6399
ENERGY: 15000 3.8760 3.4417 3.4430 0.0000 -3098.9331 263.1294 0.0000 0.0000 545.5418 -2279.5012 307.5957 -2825.0430 -2280.6499 300.5241 -1997.1842 -1867.3980 8919.3140 -4.5389 -5.3484
ENERGY: 20000 2.2050 1.0185 1.4824 0.0000 -3190.8807 325.7802 0.0000 0.0000 530.5582 -2329.8363 299.1474 -2860.3945 -2330.1303 299.2092 197.8029 239.2846 8646.1065 11.6726 11.4083
