Info: SIMULATION PARAMETERS:
Info: TIMESTEP               1
Info: NUMBER OF STEPS        0
Info: STEPS PER CYCLE        20
Info: PERIODIC CELL BASIS 1  20.7653 0 0
Info: PERIODIC CELL BASIS 2  0 20.7653 0
Info: PERIODIC CELL BASIS 3  0 0 20.7653
Info: PERIODIC CELL CENTER   -2.05638 5.08856 9.40663
Info: WRAPPING WATERS AROUND PERIODIC BOUNDARIES ON OUTPUT.
Info: FIRST LDB TIMESTEP     100
Info: LAST LDB TIMESTEP     -1
Info: HOM BACKGROUND SCALING 1
Info: PME BACKGROUND SCALING 1
Info: MIN ATOMS PER PATCH    40
Info: VELOCITY FILE          AFEP-Hyd-01.restart.vel
Info: CENTER OF MASS MOVING INITIALLY? NO
Info: DIELECTRIC             1
Info: EXCLUDE                SCALED ONE-FOUR
Info: 1-4 ELECTROSTATICS SCALED BY 1
Info: MODIFIED 1-4 VDW PARAMETERS WILL BE USED
Info: DCD FILENAME           AFEP-Hyd-02.dcd
Info: DCD FREQUENCY          10000
Info: DCD FIRST STEP         10000
Info: DCD FILE WILL CONTAIN UNIT CELL DATA
Info: XST FILENAME           AFEP-Hyd-02.xst
Info: XST FREQUENCY          10000
Info: NO VELOCITY DCD OUTPUT
Info: NO FORCE DCD OUTPUT
Info: OUTPUT FILENAME        AFEP-Hyd-02
Info: BINARY OUTPUT FILES WILL BE USED
Info: RESTART FILENAME       AFEP-Hyd-02.restart
Info: RESTART FREQUENCY      10000
Info: BINARY RESTART FILES WILL BE USED
Info: SWITCHING ACTIVE
Info: VDW FORCE SWITCHING ACTIVE
Info: SWITCHING ON           10
Info: SWITCHING OFF          12
Info: PAIRLIST DISTANCE      12
Info: PAIRLIST SHRINK RATE   0.01
Info: PAIRLIST GROW RATE     0.01
Info: PAIRLIST TRIGGER       0.3
Info: PAIRLISTS PER CYCLE    2
Info: PAIRLISTS ENABLED
Info: MARGIN                 0.444
Info: HYDROGEN GROUP CUTOFF  2.8
Info: PATCH DIMENSION        15.244
Info: ENERGY OUTPUT STEPS    10000
Info: CROSSTERM ENERGY INCLUDED IN DIHEDRAL
Info: TIMING OUTPUT STEPS    100000
Info: PRESSURE OUTPUT STEPS  10000
Info: ALCHEMICAL FEP ON
Info: FEP CURRENT LAMBDA VALUE     0
Info: FEP COMPARISON LAMBDA VALUE  0.05
Info: FEP INTRA-ALCHEMICAL NON-BONDED INTERACTIONS WILL BE RETAINED
Info: FEP INTRA-ALCHEMICAL BONDED INTERACTIONS WILL BE RETAINED
Info: FEP VDW SHIFTING COEFFICIENT 6.8
Info: FEP ELEC. ACTIVE FOR ANNIHILATED PARTICLES BETWEEN LAMBDA = 0 AND LAMBDA = 0.5
Info: FEP ELEC. ACTIVE FOR EXNIHILATED PARTICLES BETWEEN LAMBDA = 0.5 AND LAMBDA = 1
Info: FEP VDW ACTIVE FOR ANNIHILATED PARTICLES BETWEEN LAMBDA = 0 AND LAMBDA = 1
Info: FEP VDW ACTIVE FOR EXNIHILATED PARTICLES BETWEEN LAMBDA = 0 AND LAMBDA = 1
Info: FEP BOND ACTIVE FOR ANNIHILATED PARTICLES BETWEEN LAMBDA = 1 AND LAMBDA = 1
Info: FEP BOND ACTIVE FOR EXNIHILATED PARTICLES BETWEEN LAMBDA = 0 AND LAMBDA = 0
Info: LANGEVIN DYNAMICS ACTIVE
Info: LANGEVIN TEMPERATURE   300
Info: LANGEVIN USING BBK INTEGRATOR
Info: LANGEVIN DAMPING COEFFICIENT IS 1 INVERSE PS
Info: LANGEVIN DYNAMICS APPLIED TO HYDROGENS
Info: LANGEVIN PISTON PRESSURE CONTROL ACTIVE
Info:        TARGET PRESSURE IS 1.01325 BAR
Info:     OSCILLATION PERIOD IS 75 FS
Info:             DECAY TIME IS 25 FS
Info:     PISTON TEMPERATURE IS 300 K
Info:       PRESSURE CONTROL IS GROUP-BASED
Info:    INITIAL STRAIN RATE IS -2.38151e-05 -2.38151e-05 -2.38151e-05
Info:       CELL FLUCTUATION IS ISOTROPIC
Info: PARTICLE MESH EWALD (PME) ACTIVE
Info: PME TOLERANCE               1e-05
Info: PME EWALD COEFFICIENT       0.226635
Info: PME INTERPOLATION ORDER     4
Info: PME GRID DIMENSIONS         24 24 24
Info: PME MAXIMUM GRID SPACING    1
Info: FULL ELECTROSTATIC EVALUATION FREQUENCY      2
Info: USING VERLET I (r-RESPA) MTS SCHEME.
Info: C1 SPLITTING OF LONG RANGE ELECTROSTATICS
Info: PLACING ATOMS IN PATCHES BY HYDROGEN GROUPS
Info: RIGID BONDS TO HYDROGEN : ALL
Info:         ERROR TOLERANCE : 1e-06
Info:          MAX ITERATIONS : 400
Info: RIGID WATER USING SETTLE ALGORITHM
Info: RANDOM NUMBER SEED     1655152802
Info: USE HYDROGEN BONDS?    NO
Info: COORDINATE PDB         PHEN-solv.pdb
Info: STRUCTURE FILE         PHEN-solv.psf
Info: PARAMETER file: CHARMM format!
Info: PARAMETERS             ../Force-field-parameters/par_all36_prot.prm
Info: PARAMETERS             ../Force-field-parameters/par_all36_carb.prm
Info: PARAMETERS             ../Force-field-parameters/par_all36_lipid.prm
Info: PARAMETERS             ../Force-field-parameters/par_all36_na.prm
Info: PARAMETERS             ../Force-field-parameters/par_all36_cgenff.prm
Info: PARAMETERS             ../Force-field-parameters/toppar_water_ions_namd.str
Info: USING ARITHMETIC MEAN TO COMBINE L-J SIGMA PARAMETERS
Info: BINARY COORDINATES     AFEP-Hyd-01.restart.coor
Info: SKIPPING rtf SECTION IN STREAM FILE
Info: SUMMARY OF PARAMETERS:
Info: 965 BONDS
Info: 2852 ANGLES
Info: 6992 DIHEDRAL
Info: 198 IMPROPER
Info: 6 CROSSTERM
Info: 357 VDW
Info: 81 VDW_PAIRS
Info: 0 NBTHOLE_PAIRS
Info: To read alchdata from file: PHEN-solv.fep
Info: To read alchflag data from column: 5
Info: STRUCTURE SUMMARY:
Info: 889 ATOMS
Info: 597 BONDS
Info: 311 ANGLES
Info: 26 DIHEDRALS
Info: 0 IMPROPERS
Info: 0 CROSSTERMS
Info: 0 EXCLUSIONS
Info: 882 RIGID BONDS
Info: ALCH: 13 ATOMS TO DISAPPEAR IN FINAL STATE
Info: ALCH: 0 ATOMS TO APPEAR IN FINAL STATE
Info: 1785 DEGREES OF FREEDOM
Info: 299 HYDROGEN GROUPS
Info: 3 ATOMS IN LARGEST HYDROGEN GROUP
Info: 299 MIGRATION GROUPS
Info: 3 ATOMS IN LARGEST MIGRATION GROUP
Info: TOTAL MASS = 5354.61 amu
Info: TOTAL CHARGE = 1.49012e-08 e
Info: MASS DENSITY = 0.993056 g/cm^3
Info: ATOM DENSITY = 0.0992861 atoms/A^3
Info: ADDED 931 IMPLICIT EXCLUSIONS
Info: NONBONDED TABLE R-SQUARED SPACING: 0.0625
Info: NONBONDED TABLE SIZE: 769 POINTS
Info: REMOVING COM VELOCITY 0.120054 -0.17958 0.0730883
TCL: Running for 450000 steps
ETITLE: TS BOND ANGLE DIHED IMPRP ELECT VDW BOUNDARY MISC KINETIC TOTAL TEMP POTENTIAL TOTAL3 TEMPAVG PRESSURE GPRESSURE VOLUME PRESSAVG GPRESSAVG
ENERGY: 0 1.8865 1.5594 4.2357 0.0000 -3136.3982 308.3944 0.0000 0.0000 528.8124 -2291.5098 298.1630 -2820.3222 -2291.2585 298.1630 126.8857 161.6620 8953.9211 126.8857 161.6620
ENERGY: 90000 1.9934 6.2641 1.5019 0.0000 -3139.4235 299.8559 0.0000 0.0000 510.4108 -2319.3973 287.7876 -2829.8081 -2319.0428 302.3369 46.0732 166.1642 8794.8597 5.9444 7.0434
ENERGY: 180000 1.3302 3.7686 6.2324 0.0000 -3154.6963 312.8749 0.0000 0.0000 540.3148 -2290.1754 304.6485 -2830.4902 -2289.9573 304.0819 -104.5622 3.0317 8990.5782 -2.9874 -6.2899
ENERGY: 270000 2.7718 3.7251 4.4618 0.0000 -3210.7980 338.4389 0.0000 0.0000 548.6910 -2312.7096 309.3713 -2861.4005 -2311.8488 302.2921 896.3512 888.0595 8664.3700 -2.3463 -2.4588
ENERGY: 360000 2.6279 2.1985 2.8399 0.0000 -3154.9174 291.3472 0.0000 0.0000 535.5394 -2320.3646 301.9560 -2855.9040 -2319.8041 296.2896 -716.0605 -491.0647 8591.9829 -3.2907 -3.4764
ENERGY: 450000 3.4691 2.3251 1.8394 0.0000 -3190.0519 312.4621 0.0000 0.0000 537.8315 -2332.1247 303.2483 -2869.9562 -2330.9522 295.6838 -374.4178 -335.2726 8824.4620 0.8731 -0.7918
TCL: Running FEP window   2: Lambda1 0.05   Lambda2 0.1    [dLambda 0.05  ]
TCL: Setting parameter firsttimestep to 0
TCL: Setting parameter alchLambda to 0.05
Info: NONBONDED TABLE R-SQUARED SPACING: 0.0625
Info: NONBONDED TABLE SIZE: 769 POINTS
TCL: Setting parameter alchLambda2 to 0.1
Info: NONBONDED TABLE R-SQUARED SPACING: 0.0625
Info: NONBONDED TABLE SIZE: 769 POINTS
TCL: Setting parameter alchLambdaIDWS to 0.0
Info: NONBONDED TABLE R-SQUARED SPACING: 0.0625
Info: NONBONDED TABLE SIZE: 769 POINTS
TCL: Running for 450000 steps
ETITLE: TS BOND ANGLE DIHED IMPRP ELECT VDW BOUNDARY MISC KINETIC TOTAL TEMP POTENTIAL TOTAL3 TEMPAVG PRESSURE GPRESSURE VOLUME PRESSAVG GPRESSAVG
ENERGY: 0 3.4691 2.3251 1.8394 0.0000 -3188.6923 311.2039 0.0000 0.0000 537.7045 -2332.1503 303.1767 -2869.8548 -2332.2540 303.1767 -467.2726 -434.2623 8824.4620 -467.2726 -434.2623
ENERGY: 90000 2.8560 1.7189 1.6200 0.0000 -3115.4133 257.0435 0.0000 0.0000 509.8599 -2342.3150 287.4769 -2852.1749 -2341.5740 298.3031 -2190.3305 -1952.5263 9092.5863 4.8975 6.3635
ENERGY: 180000 1.5816 2.7306 5.6725 0.0000 -3195.1501 311.8509 0.0000 0.0000 537.7457 -2335.5687 303.2000 -2873.3145 -2335.2056 297.7369 -650.5066 -557.2757 8996.5945 17.9414 17.6659
ENERGY: 270000 2.7624 2.5914 3.1831 0.0000 -3167.7508 331.3069 0.0000 0.0000 540.9816 -2286.9255 305.0244 -2827.9070 -2285.9899 299.9518 732.3427 809.2600 8712.9331 15.3564 15.1315
ENERGY: 360000 0.9816 2.0735 2.4811 0.0000 -3120.6824 284.7301 0.0000 0.0000 490.0852 -2340.3308 276.3273 -2830.4161 -2339.5716 302.2879 -225.9937 -367.2346 8756.9218 4.2862 3.8622
ENERGY: 450000 2.0996 5.5551 4.6780 0.0000 -3227.9052 359.9738 0.0000 0.0000 527.4247 -2328.1740 297.3806 -2855.5987 -2327.7833 300.1069 961.4250 1000.5265 8793.4819 -14.7564 -14.7561
TCL: Running FEP window   3: Lambda1 0.1    Lambda2 0.15000000000000002 [dLambda 0.05000000000000002]
TCL: Setting parameter firsttimestep to 0
TCL: Setting parameter alchLambda to 0.1
Info: NONBONDED TABLE R-SQUARED SPACING: 0.0625
Info: NONBONDED TABLE SIZE: 769 POINTS
TCL: Setting parameter alchLambda2 to 0.15000000000000002
Info: NONBONDED TABLE R-SQUARED SPACING: 0.0625
Info: NONBONDED TABLE SIZE: 769 POINTS
TCL: Setting parameter alchLambdaIDWS to 0.05
Info: NONBONDED TABLE R-SQUARED SPACING: 0.0625
Info: NONBONDED TABLE SIZE: 769 POINTS
TCL: Running for 450000 steps
ETITLE: TS BOND ANGLE DIHED IMPRP ELECT VDW BOUNDARY MISC KINETIC TOTAL TEMP POTENTIAL TOTAL3 TEMPAVG PRESSURE GPRESSURE VOLUME PRESSAVG GPRESSAVG
ENERGY: 0 2.0996 5.5551 4.6780 0.0000 -3226.4877 359.9397 0.0000 0.0000 527.3031 -2326.9122 297.3120 -2854.2153 -2326.7605 297.3120 928.0433 965.7073 8793.4819 928.0433 965.7073
ENERGY: 90000 4.3457 2.8833 1.4768 0.0000 -3231.0223 309.2719 0.0000 0.0000 546.7865 -2366.2580 308.2975 -2913.0445 -2366.5259 303.7885 -982.6875 -811.8211 8723.3627 6.3159 6.6415
ENERGY: 180000 2.1647 1.6948 1.6225 0.0000 -3161.9402 315.0923 0.0000 0.0000 521.9285 -2319.4374 294.2817 -2841.3659 -2319.0030 302.7644 -320.1107 -258.4856 8891.4869 13.5757 13.9743
ENERGY: 270000 1.4287 3.7471 2.4302 0.0000 -3246.7058 389.5635 0.0000 0.0000 508.3065 -2341.2298 286.6011 -2849.5363 -2341.3070 296.8203 2642.1051 2810.2657 8615.9028 3.4545 4.3430
ENERGY: 360000 2.3271 1.9295 1.8297 0.0000 -3205.3488 336.3387 0.0000 0.0000 553.0148 -2309.9089 311.8092 -2862.9237 -2309.2484 294.4041 470.0239 650.8110 8937.6706 16.4980 16.1519
ENERGY: 450000 1.8557 2.7172 6.5754 0.0000 -3193.5449 313.0970 0.0000 0.0000 544.3430 -2324.9567 306.9197 -2869.2997 -2325.0810 297.7706 -24.3538 -19.9566 8817.5078 17.5248 17.0193
TCL: Running FEP window   4: Lambda1 0.15000000000000002 Lambda2 0.2    [dLambda 0.04999999999999999]
TCL: Setting parameter firsttimestep to 0
TCL: Setting parameter alchLambda to 0.15000000000000002
Info: NONBONDED TABLE R-SQUARED SPACING: 0.0625
Info: NONBONDED TABLE SIZE: 769 POINTS
TCL: Setting parameter alchLambda2 to 0.2
Info: NONBONDED TABLE R-SQUARED SPACING: 0.0625
Info: NONBONDED TABLE SIZE: 769 POINTS
TCL: Setting parameter alchLambdaIDWS to 0.1
Info: NONBONDED TABLE R-SQUARED SPACING: 0.0625
Info: NONBONDED TABLE SIZE: 769 POINTS
TCL: Running for 450000 steps
ETITLE: TS BOND ANGLE DIHED IMPRP ELECT VDW BOUNDARY MISC KINETIC TOTAL TEMP POTENTIAL TOTAL3 TEMPAVG PRESSURE GPRESSURE VOLUME PRESSAVG GPRESSAVG
ENERGY: 0 1.8557 2.7172 6.5754 0.0000 -3192.9428 313.4960 0.0000 0.0000 544.2061 -2324.0925 306.8425 -2868.2986 -2323.6184 306.8425 -79.1566 -47.3931 8817.5078 -79.1566 -47.3931
ENERGY: 90000 3.0795 2.3354 5.6137 0.0000 -3115.9573 273.4162 0.0000 0.0000 528.5975 -2302.9151 298.0419 -2831.5126 -2303.2001 301.6611 -1006.5409 -990.4272 8793.1238 -9.5138 -9.2198
ENERGY: 180000 6.7596 2.3424 2.3930 0.0000 -3163.5373 313.9505 0.0000 0.0000 530.1695 -2307.9224 298.9282 -2838.0919 -2307.4992 298.4026 -1149.4644 -953.5039 8936.8110 10.5680 11.2546
ENERGY: 270000 2.8523 2.9949 2.7799 0.0000 -3171.6383 314.1096 0.0000 0.0000 548.0916 -2300.8100 309.0333 -2848.9016 -2300.3577 300.4232 169.1014 197.1765 8835.4782 5.5361 4.9233
ENERGY: 360000 2.5345 2.3056 1.6067 0.0000 -3195.4779 332.3193 0.0000 0.0000 520.1750 -2336.5367 293.2929 -2856.7117 -2336.3653 300.3990 66.5867 105.8623 8740.8023 -4.2911 -4.2645
ENERGY: 450000 4.5158 2.5164 3.8738 0.0000 -3189.0255 308.8405 0.0000 0.0000 531.0976 -2338.1815 299.4515 -2869.2791 -2338.3154 293.5292 -862.2982 -744.3100 8964.1486 -18.9780 -19.1286
TCL: Running FEP window   5: Lambda1 0.2    Lambda2 0.25   [dLambda 0.04999999999999999]
TCL: Setting parameter firsttimestep to 0
TCL: Setting parameter alchLambda to 0.2
Info: NONBONDED TABLE R-SQUARED SPACING: 0.0625
Info: NONBONDED TABLE SIZE: 769 POINTS
TCL: Setting parameter alchLambda2 to 0.25
Info: NONBONDED TABLE R-SQUARED SPACING: 0.0625
Info: NONBONDED TABLE SIZE: 769 POINTS
TCL: Setting parameter alchLambdaIDWS to 0.15000000000000002
Info: NONBONDED TABLE R-SQUARED SPACING: 0.0625
Info: NONBONDED TABLE SIZE: 769 POINTS
TCL: Running for 450000 steps
ETITLE: TS BOND ANGLE DIHED IMPRP ELECT VDW BOUNDARY MISC KINETIC TOTAL TEMP POTENTIAL TOTAL3 TEMPAVG PRESSURE GPRESSURE VOLUME PRESSAVG GPRESSAVG
ENERGY: 0 4.5158 2.5164 3.8738 0.0000 -3187.7214 307.8804 0.0000 0.0000 530.9718 -2337.9634 299.3806 -2868.9352 -2337.3864 299.3806 -824.9996 -799.6611 8964.1486 -824.9996 -799.6611
ENERGY: 90000 2.4470 1.3373 1.2675 0.0000 -3139.7191 306.2824 0.0000 0.0000 546.6263 -2281.7587 308.2071 -2828.3849 -2282.2583 305.0031 -284.7186 -390.4840 8902.8313 -2.7388 -3.6238
ENERGY: 180000 3.3232 2.5296 8.1006 0.0000 -3257.0310 359.8373 0.0000 0.0000 519.4490 -2363.7912 292.8836 -2883.2403 -2363.3410 296.8708 1506.3626 1357.6551 8565.5913 2.2440 2.6716
ENERGY: 270000 4.4363 2.3865 3.4119 0.0000 -3155.1279 339.9144 0.0000 0.0000 548.1599 -2256.8190 309.0718 -2804.9789 -2256.9810 305.8433 651.3375 760.9142 8833.9631 -11.8546 -11.5801
ENERGY: 360000 2.4885 3.6827 4.4395 0.0000 -3150.8367 315.5478 0.0000 0.0000 578.2462 -2246.4320 326.0355 -2824.6782 -2245.7444 301.8110 12.9254 -54.2667 8943.0155 0.3455 1.6161
ENERGY: 450000 4.7748 3.6815 3.6484 0.0000 -3125.0964 301.7626 0.0000 0.0000 520.6366 -2290.5926 293.5532 -2811.2292 -2291.2424 301.4723 -701.6087 -588.8346 8784.5024 7.4165 7.9624
TCL: Running FEP window   6: Lambda1 0.25   Lambda2 0.3    [dLambda 0.04999999999999999]
TCL: Setting parameter firsttimestep to 0
TCL: Setting parameter alchLambda to 0.25
Info: NONBONDED TABLE R-SQUARED SPACING: 0.0625
Info: NONBONDED TABLE SIZE: 769 POINTS
TCL: Setting parameter alchLambda2 to 0.3
Info: NONBONDED TABLE R-SQUARED SPACING: 0.0625
Info: NONBONDED TABLE SIZE: 769 POINTS
TCL: Setting parameter alchLambdaIDWS to 0.2
Info: NONBONDED TABLE R-SQUARED SPACING: 0.0625
Info: NONBONDED TABLE SIZE: 769 POINTS
TCL: Running for 450000 steps
ETITLE: TS BOND ANGLE DIHED IMPRP ELECT VDW BOUNDARY MISC KINETIC TOTAL TEMP POTENTIAL TOTAL3 TEMPAVG PRESSURE GPRESSURE VOLUME PRESSAVG GPRESSAVG
ENERGY: 0 4.7748 3.6815 3.6484 0.0000 -3124.0443 301.9282 0.0000 0.0000 520.5017 -2289.5097 293.4772 -2810.0114 -2289.5541 293.4772 -641.2301 -613.4063 8784.5024 -641.2301 -613.4063
ENERGY: 90000 6.3749 5.4772 2.7079 0.0000 -3142.2890 318.3506 0.0000 0.0000 556.5111 -2252.8673 313.7806 -2809.3784 -2252.5172 298.1440 293.5556 350.2434 8713.4554 10.5007 9.9477
ENERGY: 180000 3.3954 3.7894 2.4960 0.0000 -3164.7142 299.2111 0.0000 0.0000 562.5888 -2293.2335 317.2073 -2855.8223 -2292.6468 294.7392 -406.0018 -283.2595 8758.0040 -2.9697 -2.0001
ENERGY: 270000 2.7029 5.3351 2.4861 0.0000 -3158.4082 314.4174 0.0000 0.0000 512.9127 -2320.5540 289.1982 -2833.4667 -2320.5344 306.2588 -102.3372 10.6232 8789.9107 -0.3026 -0.6153
ENERGY: 360000 2.5714 3.6952 4.3485 0.0000 -3180.2481 330.0920 0.0000 0.0000 530.4498 -2309.0913 299.0863 -2839.5411 -2309.3782 295.2690 473.1855 504.3502 8790.3526 5.2314 4.0338
ENERGY: 450000 3.5794 1.8582 3.5732 0.0000 -3203.2560 344.2752 0.0000 0.0000 574.0154 -2275.9544 323.6501 -2849.9698 -2275.7865 298.1659 302.7256 525.4670 8784.0608 22.0914 22.6599
TCL: Running FEP window   7: Lambda1 0.3    Lambda2 0.35   [dLambda 0.04999999999999999]
TCL: Setting parameter firsttimestep to 0
TCL: Setting parameter alchLambda to 0.3
Info: NONBONDED TABLE R-SQUARED SPACING: 0.0625
Info: NONBONDED TABLE SIZE: 769 POINTS
TCL: Setting parameter alchLambda2 to 0.35
Info: NONBONDED TABLE R-SQUARED SPACING: 0.0625
Info: NONBONDED TABLE SIZE: 769 POINTS
TCL: Setting parameter alchLambdaIDWS to 0.25
Info: NONBONDED TABLE R-SQUARED SPACING: 0.0625
Info: NONBONDED TABLE SIZE: 769 POINTS
TCL: Running for 450000 steps
ETITLE: TS BOND ANGLE DIHED IMPRP ELECT VDW BOUNDARY MISC KINETIC TOTAL TEMP POTENTIAL TOTAL3 TEMPAVG PRESSURE GPRESSURE VOLUME PRESSAVG GPRESSAVG
ENERGY: 0 3.5794 1.8582 3.5732 0.0000 -3200.9986 343.8858 0.0000 0.0000 573.8868 -2274.2151 323.5776 -2848.1019 -2274.0283 323.5776 476.8975 502.5909 8784.0608 476.8975 502.5909
ENERGY: 90000 2.8777 2.3270 1.5754 0.0000 -3172.4074 321.2704 0.0000 0.0000 522.1216 -2322.2354 294.3905 -2844.3570 -2321.4699 302.6797 346.6871 290.4542 8595.0450 5.4028 5.8091
ENERGY: 180000 4.9713 4.4608 0.6180 0.0000 -3187.9372 307.8419 0.0000 0.0000 537.3697 -2332.6754 302.9879 -2870.0452 -2333.1890 299.9696 -899.0695 -905.3294 8823.7131 8.5780 8.3529
ENERGY: 270000 2.1404 3.2870 5.8344 0.0000 -3155.5620 314.9337 0.0000 0.0000 516.1270 -2313.2394 291.0106 -2829.3665 -2313.1610 300.8409 -160.1853 -218.1939 8829.8837 6.3752 7.5774
ENERGY: 360000 3.5628 3.0432 3.2322 0.0000 -3218.3022 362.6316 0.0000 0.0000 533.6095 -2312.2230 300.8678 -2845.8324 -2310.9306 302.5634 918.6277 924.2142 8797.1111 -6.9296 -5.4045
ENERGY: 450000 4.2417 5.8073 1.5103 0.0000 -3135.3483 300.1078 0.0000 0.0000 496.5545 -2327.1267 279.9749 -2823.6812 -2326.3959 300.6641 -581.6218 -631.0779 8808.4414 1.5230 1.2971
TCL: Running FEP window   8: Lambda1 0.35   Lambda2 0.39999999999999997 [dLambda 0.04999999999999999]
TCL: Setting parameter firsttimestep to 0
TCL: Setting parameter alchLambda to 0.35
Info: NONBONDED TABLE R-SQUARED SPACING: 0.0625
Info: NONBONDED TABLE SIZE: 769 POINTS
TCL: Setting parameter alchLambda2 to 0.39999999999999997
Info: NONBONDED TABLE R-SQUARED SPACING: 0.0625
Info: NONBONDED TABLE SIZE: 769 POINTS
TCL: Setting parameter alchLambdaIDWS to 0.3
Info: NONBONDED TABLE R-SQUARED SPACING: 0.0625
Info: NONBONDED TABLE SIZE: 769 POINTS
TCL: Running for 450000 steps
ETITLE: TS BOND ANGLE DIHED IMPRP ELECT VDW BOUNDARY MISC KINETIC TOTAL TEMP POTENTIAL TOTAL3 TEMPAVG PRESSURE GPRESSURE VOLUME PRESSAVG GPRESSAVG
ENERGY: 0 4.2417 5.8073 1.5103 0.0000 -3132.9091 299.6896 0.0000 0.0000 496.4227 -2325.2375 279.9006 -2821.6602 -2325.2642 279.9006 -642.8843 -644.0653 8808.4414 -642.8843 -644.0653
ENERGY: 90000 3.3480 3.1142 3.8508 0.0000 -3149.8342 286.4634 0.0000 0.0000 546.0138 -2307.0439 307.8618 -2853.0577 -2306.0479 303.7263 -1287.4704 -1045.1116 8671.0699 14.1703 12.1824
ENERGY: 180000 3.4040 1.9469 1.6338 0.0000 -3218.0933 331.2178 0.0000 0.0000 500.4280 -2379.4629 282.1589 -2879.8908 -2378.1796 298.9799 326.6395 393.5439 8629.6191 -5.2503 -5.3096
ENERGY: 270000 1.8737 4.0035 2.3059 0.0000 -3227.1799 328.5223 0.0000 0.0000 504.0597 -2386.4148 284.2066 -2890.4745 -2386.1635 301.1539 273.7614 364.0770 8617.7130 -5.9712 -5.4822
ENERGY: 360000 2.0412 2.3727 1.7127 0.0000 -3171.8132 308.8935 0.0000 0.0000 551.9895 -2304.8036 311.2311 -2856.7931 -2304.8247 294.3495 -200.9389 -102.3894 8617.5538 -4.8521 -4.7574
ENERGY: 450000 1.7886 1.2152 3.7416 0.0000 -3139.6641 318.6501 0.0000 0.0000 536.9171 -2277.3515 302.7328 -2814.2687 -2277.4455 299.2341 64.6379 -41.5722 8935.9315 10.3767 8.9633
TCL: Running FEP window   9: Lambda1 0.39999999999999997 Lambda2 0.44999999999999996 [dLambda 0.04999999999999999]
TCL: Setting parameter firsttimestep to 0
TCL: Setting parameter alchLambda to 0.39999999999999997
Info: NONBONDED TABLE R-SQUARED SPACING: 0.0625
Info: NONBONDED TABLE SIZE: 769 POINTS
TCL: Setting parameter alchLambda2 to 0.44999999999999996
Info: NONBONDED TABLE R-SQUARED SPACING: 0.0625
Info: NONBONDED TABLE SIZE: 769 POINTS
TCL: Setting parameter alchLambdaIDWS to 0.35
Info: NONBONDED TABLE R-SQUARED SPACING: 0.0625
Info: NONBONDED TABLE SIZE: 769 POINTS
TCL: Running for 450000 steps
ETITLE: TS BOND ANGLE DIHED IMPRP ELECT VDW BOUNDARY MISC KINETIC TOTAL TEMP POTENTIAL TOTAL3 TEMPAVG PRESSURE GPRESSURE VOLUME PRESSAVG GPRESSAVG
ENERGY: 0 1.7886 1.2152 3.7416 0.0000 -3138.4325 318.8841 0.0000 0.0000 536.7727 -2276.0303 302.6513 -2812.8030 -2275.8471 302.6513 -82.8740 -48.7889 8935.9315 -82.8740 -48.7889
ENERGY: 90000 2.0794 2.4396 4.3692 0.0000 -3097.5622 287.8721 0.0000 0.0000 530.0667 -2270.7351 298.8703 -2800.8018 -2270.6586 300.6737 -903.7703 -841.1779 8880.8501 -10.2754 -9.6996
ENERGY: 180000 2.1368 3.6395 3.2548 0.0000 -3229.5118 366.5026 0.0000 0.0000 530.0753 -2323.9027 298.8751 -2853.9781 -2323.3316 298.7990 1118.6783 1177.6036 8686.4755 -10.8309 -11.0293
ENERGY: 270000 5.7738 7.0261 2.2442 0.0000 -3074.0453 256.7368 0.0000 0.0000 537.4819 -2264.7825 303.0512 -2802.2643 -2264.3183 303.7929 -1568.5171 -1538.0605 8782.6361 -0.0576 2.2308
ENERGY: 360000 3.5463 2.2274 1.1225 0.0000 -3191.5704 319.9005 0.0000 0.0000 548.3710 -2316.4028 309.1908 -2864.7738 -2316.0634 298.0826 743.4632 775.5554 8285.9697 10.6443 10.5937
ENERGY: 450000 4.8335 2.6082 1.7884 0.0000 -3144.5302 302.1098 0.0000 0.0000 543.1615 -2290.0289 306.2536 -2833.1904 -2289.1467 303.7932 -930.7933 -771.5371 8609.0388 0.6194 -2.2128
TCL: Running FEP window  10: Lambda1 0.44999999999999996 Lambda2 0.49999999999999994 [dLambda 0.04999999999999999]
TCL: Setting parameter firsttimestep to 0
TCL: Setting parameter alchLambda to 0.44999999999999996
Info: NONBONDED TABLE R-SQUARED SPACING: 0.0625
Info: NONBONDED TABLE SIZE: 769 POINTS
TCL: Setting parameter alchLambda2 to 0.49999999999999994
Info: NONBONDED TABLE R-SQUARED SPACING: 0.0625
Info: NONBONDED TABLE SIZE: 769 POINTS
TCL: Setting parameter alchLambdaIDWS to 0.39999999999999997
Info: NONBONDED TABLE R-SQUARED SPACING: 0.0625
Info: NONBONDED TABLE SIZE: 769 POINTS
TCL: Running for 450000 steps
ETITLE: TS BOND ANGLE DIHED IMPRP ELECT VDW BOUNDARY MISC KINETIC TOTAL TEMP POTENTIAL TOTAL3 TEMPAVG PRESSURE GPRESSURE VOLUME PRESSAVG GPRESSAVG
ENERGY: 0 4.8335 2.6082 1.7884 0.0000 -3141.4658 301.2342 0.0000 0.0000 543.0339 -2287.9677 306.1816 -2831.0016 -2287.7755 306.1816 -828.9147 -784.0666 8609.0388 -828.9147 -784.0666
ENERGY: 90000 2.6720 2.9836 2.4182 0.0000 -3154.4131 302.4952 0.0000 0.0000 543.0233 -2300.8207 306.1756 -2843.8440 -2301.0467 300.4260 -868.0668 -788.0674 8897.2386 9.0872 8.6082
ENERGY: 180000 3.1335 1.4106 2.0242 0.0000 -3128.2262 301.6072 0.0000 0.0000 519.2378 -2300.8129 292.7645 -2820.0507 -2301.2856 302.2402 -525.5496 -492.1586 8844.6648 12.5424 13.5660
ENERGY: 270000 2.5276 1.0851 2.7078 0.0000 -3143.0985 307.7734 0.0000 0.0000 543.2521 -2285.7525 306.3047 -2829.0046 -2284.9409 297.5648 345.4509 326.5631 8568.6118 1.5455 1.9245
ENERGY: 360000 4.0079 7.1342 3.3639 0.0000 -3209.3000 328.7277 0.0000 0.0000 510.9724 -2355.0940 288.1042 -2866.0663 -2355.6930 296.7391 449.2182 451.9759 8638.6087 -8.6038 -10.3185
ENERGY: 450000 3.1715 1.1295 1.9051 0.0000 -3093.0400 256.4109 0.0000 0.0000 535.5546 -2294.8684 301.9645 -2830.4230 -2293.6017 296.3730 -1968.6895 -1871.7012 8811.5961 4.9337 3.5841
TCL: Running FEP window  11: Lambda1 0.49999999999999994 Lambda2 0.5499999999999999 [dLambda 0.04999999999999999]
TCL: Setting parameter firsttimestep to 0
TCL: Setting parameter alchLambda to 0.49999999999999994
Info: NONBONDED TABLE R-SQUARED SPACING: 0.0625
Info: NONBONDED TABLE SIZE: 769 POINTS
TCL: Setting parameter alchLambda2 to 0.5499999999999999
Info: NONBONDED TABLE R-SQUARED SPACING: 0.0625
Info: NONBONDED TABLE SIZE: 769 POINTS
TCL: Setting parameter alchLambdaIDWS to 0.44999999999999996
Info: NONBONDED TABLE R-SQUARED SPACING: 0.0625
Info: NONBONDED TABLE SIZE: 769 POINTS
TCL: Running for 450000 steps
ETITLE: TS BOND ANGLE DIHED IMPRP ELECT VDW BOUNDARY MISC KINETIC TOTAL TEMP POTENTIAL TOTAL3 TEMPAVG PRESSURE GPRESSURE VOLUME PRESSAVG GPRESSAVG
ENERGY: 0 3.1715 1.1295 1.9051 0.0000 -3092.7245 256.3827 0.0000 0.0000 535.4188 -2294.7169 301.8880 -2830.1357 -2294.7251 301.8880 -1925.5850 -1888.6920 8811.5961 -1925.5850 -1888.6920
ENERGY: 90000 1.1530 1.1653 4.7461 0.0000 -3142.9694 333.6919 0.0000 0.0000 553.0389 -2249.1741 311.8228 -2802.2130 -2249.4510 299.1064 689.6142 775.2432 8833.5928 15.4310 13.9910
ENERGY: 180000 4.5458 4.4185 2.3694 0.0000 -3193.0972 331.3673 0.0000 0.0000 522.8253 -2327.5709 294.7873 -2850.3962 -2327.1702 302.4938 24.9717 123.1524 8622.0309 -17.5256 -18.3377
ENERGY: 270000 3.0727 1.4770 3.6500 0.0000 -3166.9197 310.2568 0.0000 0.0000 531.7603 -2316.7030 299.8251 -2848.4633 -2316.9854 300.2722 -768.6749 -680.7944 8936.7934 8.7129 8.7478
ENERGY: 360000 0.9120 2.1798 2.9127 0.0000 -3072.8460 294.4869 0.0000 0.0000 525.9445 -2246.4102 296.5460 -2772.3547 -2246.0113 304.4864 -435.5431 -357.4164 8995.9499 -5.0823 -5.6206
ENERGY: 450000 2.2791 4.6029 3.2033 0.0000 -3244.4018 337.0370 0.0000 0.0000 532.9312 -2364.3484 300.4854 -2897.2796 -2364.5750 299.9484 368.4519 628.7520 8502.8290 2.1538 2.2846
TCL: Running FEP window  12: Lambda1 0.5499999999999999 Lambda2 0.6    [dLambda 0.050000000000000044]
TCL: Setting parameter firsttimestep to 0
TCL: Setting parameter alchLambda to 0.5499999999999999
Info: NONBONDED TABLE R-SQUARED SPACING: 0.0625
Info: NONBONDED TABLE SIZE: 769 POINTS
TCL: Setting parameter alchLambda2 to 0.6
Info: NONBONDED TABLE R-SQUARED SPACING: 0.0625
Info: NONBONDED TABLE SIZE: 769 POINTS
TCL: Setting parameter alchLambdaIDWS to 0.49999999999999994
Info: NONBONDED TABLE R-SQUARED SPACING: 0.0625
Info: NONBONDED TABLE SIZE: 769 POINTS
TCL: Running for 450000 steps
ETITLE: TS BOND ANGLE DIHED IMPRP ELECT VDW BOUNDARY MISC KINETIC TOTAL TEMP POTENTIAL TOTAL3 TEMPAVG PRESSURE GPRESSURE VOLUME PRESSAVG GPRESSAVG
ENERGY: 0 2.2791 4.6029 3.2033 0.0000 -3244.4015 337.3873 0.0000 0.0000 532.8073 -2364.1217 300.4155 -2896.9290 -2363.9945 300.4155 575.8843 618.7101 8502.8290 575.8843 618.7101
ENERGY: 90000 2.5297 2.1168 3.3710 0.0000 -3133.1111 318.9081 0.0000 0.0000 494.3134 -2311.8720 278.7113 -2806.1855 -2312.5527 296.7985 790.9064 704.3777 8629.4398 -10.8550 -10.2762
ENERGY: 180000 3.8003 4.8404 0.9172 0.0000 -3205.8539 334.2298 0.0000 0.0000 555.8555 -2306.2107 313.4109 -2862.0662 -2305.7929 299.7779 701.2564 679.0874 8578.7092 -1.1338 1.0315
ENERGY: 270000 3.5320 3.5006 4.1952 0.0000 -3144.2796 317.8146 0.0000 0.0000 538.5873 -2276.6499 303.6745 -2815.2372 -2276.0797 295.6831 -220.0784 -150.8627 8824.8257 1.2129 3.1536
ENERGY: 360000 7.2181 2.5104 4.4914 0.0000 -3222.6556 332.1482 0.0000 0.0000 551.1480 -2325.1394 310.7566 -2876.2874 -2325.0437 300.4486 89.5243 133.4645 8571.4246 4.5650 4.4462
ENERGY: 450000 3.1058 4.5076 2.3495 0.0000 -3127.5015 277.4661 0.0000 0.0000 522.2346 -2317.8380 294.4542 -2840.0726 -2317.2525 300.8913 -1195.7783 -1190.5373 8918.1274 -0.7990 -2.4404
TCL: Running FEP window  13: Lambda1 0.6    Lambda2 0.65   [dLambda 0.050000000000000044]
TCL: Setting parameter firsttimestep to 0
TCL: Setting parameter alchLambda to 0.6
Info: NONBONDED TABLE R-SQUARED SPACING: 0.0625
Info: NONBONDED TABLE SIZE: 769 POINTS
TCL: Setting parameter alchLambda2 to 0.65
Info: NONBONDED TABLE R-SQUARED SPACING: 0.0625
Info: NONBONDED TABLE SIZE: 769 POINTS
TCL: Setting parameter alchLambdaIDWS to 0.5499999999999999
Info: NONBONDED TABLE R-SQUARED SPACING: 0.0625
Info: NONBONDED TABLE SIZE: 769 POINTS
TCL: Running for 450000 steps
ETITLE: TS BOND ANGLE DIHED IMPRP ELECT VDW BOUNDARY MISC KINETIC TOTAL TEMP POTENTIAL TOTAL3 TEMPAVG PRESSURE GPRESSURE VOLUME PRESSAVG GPRESSAVG
ENERGY: 0 3.1058 4.5076 2.3495 0.0000 -3127.5020 277.5683 0.0000 0.0000 522.0948 -2317.8761 294.3754 -2839.9708 -2317.8190 294.3754 -1236.2893 -1205.4387 8918.1274 -1236.2893 -1205.4387
ENERGY: 90000 2.9364 3.8096 3.0140 0.0000 -3167.7884 349.0660 0.0000 0.0000 561.6355 -2247.3269 316.6698 -2808.9624 -2246.5034 304.3885 688.7004 781.0491 8754.4219 10.5568 9.6794
ENERGY: 180000 2.3137 2.4322 1.5659 0.0000 -3179.4129 330.4289 0.0000 0.0000 527.4412 -2315.2312 297.3899 -2842.6723 -2314.1865 302.4044 568.0898 783.9032 8580.8156 10.2528 9.3925
ENERGY: 270000 4.4017 4.9959 1.5475 0.0000 -3157.5733 310.3464 0.0000 0.0000 580.4103 -2255.8715 327.2558 -2836.2818 -2255.3894 304.8218 -586.4073 -493.1621 8677.2225 21.0684 21.0139
ENERGY: 360000 1.8476 2.8545 5.7878 0.0000 -3168.0100 347.4980 0.0000 0.0000 561.1522 -2248.8699 316.3974 -2810.0221 -2248.5928 302.8654 1627.3580 1647.9685 8574.9153 5.6756 5.5288
ENERGY: 450000 3.3989 1.8489 1.6438 0.0000 -3164.0543 336.5705 0.0000 0.0000 527.7495 -2292.8426 297.5637 -2820.5921 -2292.9791 300.6426 575.5921 528.8135 8650.8686 22.8842 24.0125
TCL: Running FEP window  14: Lambda1 0.65   Lambda2 0.7000000000000001 [dLambda 0.050000000000000044]
TCL: Setting parameter firsttimestep to 0
TCL: Setting parameter alchLambda to 0.65
Info: NONBONDED TABLE R-SQUARED SPACING: 0.0625
Info: NONBONDED TABLE SIZE: 769 POINTS
TCL: Setting parameter alchLambda2 to 0.7000000000000001
Info: NONBONDED TABLE R-SQUARED SPACING: 0.0625
Info: NONBONDED TABLE SIZE: 769 POINTS
TCL: Setting parameter alchLambdaIDWS to 0.6
Info: NONBONDED TABLE R-SQUARED SPACING: 0.0625
Info: NONBONDED TABLE SIZE: 769 POINTS
TCL: Running for 450000 steps
ETITLE: TS BOND ANGLE DIHED IMPRP ELECT VDW BOUNDARY MISC KINETIC TOTAL TEMP POTENTIAL TOTAL3 TEMPAVG PRESSURE GPRESSURE VOLUME PRESSAVG GPRESSAVG
ENERGY: 0 3.3989 1.8489 1.6438 0.0000 -3164.0541 336.5716 0.0000 0.0000 527.6143 -2292.9765 297.4875 -2820.5907 -2292.9132 297.4875 485.3134 513.0929 8650.8686 485.3134 513.0929
ENERGY: 90000 2.7151 2.6769 4.4150 0.0000 -3179.0156 338.6084 0.0000 0.0000 526.9621 -2303.6380 297.1198 -2830.6001 -2303.7883 294.7489 308.5209 401.9389 8621.3854 9.7737 9.7349
ENERGY: 180000 2.8849 3.9452 4.3983 0.0000 -3180.4130 347.7897 0.0000 0.0000 539.6232 -2281.7717 304.2586 -2821.3950 -2282.1782 299.2968 1665.3559 1525.4336 8504.0470 -5.8447 -9.2143
ENERGY: 270000 2.6963 1.5635 1.8321 0.0000 -3235.9531 358.0885 0.0000 0.0000 525.8128 -2345.9599 296.4718 -2871.7728 -2345.9598 294.1139 452.1143 330.0167 8843.5868 -3.3458 -2.9296
ENERGY: 360000 1.4601 4.0024 1.9911 0.0000 -3187.7962 353.4628 0.0000 0.0000 530.1148 -2296.7650 298.8974 -2826.8798 -2295.3988 298.4889 1822.3801 1752.6852 8752.1746 -2.6826 -2.0747
ENERGY: 450000 2.2035 2.0785 4.6921 0.0000 -3144.2136 328.6877 0.0000 0.0000 560.1234 -2246.4283 315.8173 -2806.5517 -2247.0619 303.0516 1032.6496 1224.8212 8626.6169 11.4968 11.9568
TCL: Running FEP window  15: Lambda1 0.7000000000000001 Lambda2 0.7500000000000001 [dLambda 0.050000000000000044]
TCL: Setting parameter firsttimestep to 0
TCL: Setting parameter alchLambda to 0.7000000000000001
Info: NONBONDED TABLE R-SQUARED SPACING: 0.0625
Info: NONBONDED TABLE SIZE: 769 POINTS
TCL: Setting parameter alchLambda2 to 0.7500000000000001
Info: NONBONDED TABLE R-SQUARED SPACING: 0.0625
Info: NONBONDED TABLE SIZE: 769 POINTS
TCL: Setting parameter alchLambdaIDWS to 0.65
Info: NONBONDED TABLE R-SQUARED SPACING: 0.0625
Info: NONBONDED TABLE SIZE: 769 POINTS
TCL: Running for 450000 steps
ETITLE: TS BOND ANGLE DIHED IMPRP ELECT VDW BOUNDARY MISC KINETIC TOTAL TEMP POTENTIAL TOTAL3 TEMPAVG PRESSURE GPRESSURE VOLUME PRESSAVG GPRESSAVG
ENERGY: 0 2.2035 2.0785 4.6921 0.0000 -3144.2140 328.8695 0.0000 0.0000 560.0069 -2246.3634 315.7516 -2806.3703 -2246.2861 315.7516 1167.1427 1213.9674 8626.6169 1167.1427 1213.9674
ENERGY: 90000 3.9034 5.5050 2.9011 0.0000 -3201.1221 316.4558 0.0000 0.0000 557.6848 -2314.6719 314.4423 -2872.3568 -2313.8859 301.6768 -442.1859 -586.8092 8577.4264 -1.7674 -1.9487
ENERGY: 180000 0.7659 2.6555 3.2362 0.0000 -3164.3735 316.1192 0.0000 0.0000 511.5982 -2329.9984 288.4571 -2841.5967 -2329.6568 295.8383 -421.3102 -490.3968 8900.4253 11.0526 9.9346
ENERGY: 270000 2.1657 1.2400 4.6195 0.0000 -3177.3331 328.5446 0.0000 0.0000 525.3177 -2315.4456 296.1926 -2840.7633 -2315.4771 303.5218 -4.6954 64.5622 8799.3215 2.2065 3.1221
ENERGY: 360000 6.3302 3.6088 3.3569 0.0000 -3180.4275 306.1486 0.0000 0.0000 531.6344 -2329.3486 299.7542 -2860.9830 -2328.9169 300.4006 -1283.5724 -1196.6544 8815.8108 8.7859 7.2586
ENERGY: 450000 3.2502 5.9130 2.1312 0.0000 -3151.8069 314.0995 0.0000 0.0000 519.9155 -2306.4975 293.1467 -2826.4130 -2305.3328 303.5491 -133.5670 -15.9756 8651.4235 3.1972 4.4585
TCL: Running FEP window  16: Lambda1 0.7500000000000001 Lambda2 0.8000000000000002 [dLambda 0.050000000000000044]
TCL: Setting parameter firsttimestep to 0
TCL: Setting parameter alchLambda to 0.7500000000000001
Info: NONBONDED TABLE R-SQUARED SPACING: 0.0625
Info: NONBONDED TABLE SIZE: 769 POINTS
TCL: Setting parameter alchLambda2 to 0.8000000000000002
Info: NONBONDED TABLE R-SQUARED SPACING: 0.0625
Info: NONBONDED TABLE SIZE: 769 POINTS
TCL: Setting parameter alchLambdaIDWS to 0.7000000000000001
Info: NONBONDED TABLE R-SQUARED SPACING: 0.0625
Info: NONBONDED TABLE SIZE: 769 POINTS
TCL: Running for 450000 steps
ETITLE: TS BOND ANGLE DIHED IMPRP ELECT VDW BOUNDARY MISC KINETIC TOTAL TEMP POTENTIAL TOTAL3 TEMPAVG PRESSURE GPRESSURE VOLUME PRESSAVG GPRESSAVG
ENERGY: 0 3.2502 5.9130 2.1312 0.0000 -3151.8065 314.6086 0.0000 0.0000 519.7877 -2306.1158 293.0746 -2825.9035 -2306.2519 293.0746 -42.9645 -12.8838 8651.4235 -42.9645 -12.8838
ENERGY: 90000 1.8070 4.6166 1.9488 0.0000 -3150.6854 329.4562 0.0000 0.0000 500.3489 -2312.5079 282.1143 -2812.8568 -2312.5240 296.0242 251.6624 262.2604 8736.5789 16.9843 17.4176
ENERGY: 180000 1.7474 2.9392 1.9765 0.0000 -3201.5975 341.2186 0.0000 0.0000 545.7913 -2307.9244 307.7363 -2853.7158 -2307.6601 293.7805 790.7812 912.8052 8703.9056 5.8030 5.5649
ENERGY: 270000 3.3629 2.2784 3.5769 0.0000 -3232.9794 328.6548 0.0000 0.0000 518.7245 -2376.3819 292.4751 -2895.1064 -2375.2707 300.7673 -857.8408 -892.1205 8811.0379 18.6827 17.9732
ENERGY: 360000 6.4610 2.3545 1.2790 0.0000 -3171.7009 314.9712 0.0000 0.0000 535.4113 -2311.2238 301.8837 -2846.6351 -2311.1527 300.5449 -1023.4684 -753.7864 8760.0026 3.9366 4.3434
ENERGY: 450000 2.1952 3.0458 4.6402 0.0000 -3118.6111 332.2116 0.0000 0.0000 560.8893 -2215.6290 316.2491 -2776.5183 -2215.5401 297.7277 -19.1275 136.3348 8930.3605 8.7250 9.0976
TCL: Running FEP window  17: Lambda1 0.8000000000000002 Lambda2 0.8500000000000002 [dLambda 0.050000000000000044]
TCL: Setting parameter firsttimestep to 0
TCL: Setting parameter alchLambda to 0.8000000000000002
Info: NONBONDED TABLE R-SQUARED SPACING: 0.0625
Info: NONBONDED TABLE SIZE: 769 POINTS
TCL: Setting parameter alchLambda2 to 0.8500000000000002
Info: NONBONDED TABLE R-SQUARED SPACING: 0.0625
Info: NONBONDED TABLE SIZE: 769 POINTS
TCL: Setting parameter alchLambdaIDWS to 0.7500000000000001
Info: NONBONDED TABLE R-SQUARED SPACING: 0.0625
Info: NONBONDED TABLE SIZE: 769 POINTS
TCL: Running for 450000 steps
ETITLE: TS BOND ANGLE DIHED IMPRP ELECT VDW BOUNDARY MISC KINETIC TOTAL TEMP POTENTIAL TOTAL3 TEMPAVG PRESSURE GPRESSURE VOLUME PRESSAVG GPRESSAVG
ENERGY: 0 2.1952 3.0458 4.6402 0.0000 -3118.6115 331.0135 0.0000 0.0000 560.7491 -2216.9676 316.1701 -2777.7168 -2216.6941 316.1701 102.2527 122.6996 8930.3605 102.2527 122.6996
ENERGY: 90000 5.5571 3.5415 6.2302 0.0000 -3176.0208 315.5801 0.0000 0.0000 521.3953 -2323.7165 293.9810 -2845.1119 -2323.7180 300.7632 -760.4815 -780.0767 8846.7053 -6.7141 -5.5770
ENERGY: 180000 2.9954 2.1858 2.8913 0.0000 -3208.4534 377.9690 0.0000 0.0000 554.4582 -2267.9537 312.6230 -2822.4119 -2266.7231 307.4538 1990.6806 2059.6588 8527.8502 -0.7747 -0.5417
ENERGY: 270000 4.4642 3.8026 3.0906 0.0000 -3173.7817 302.3655 0.0000 0.0000 509.3982 -2350.6607 287.2166 -2860.0589 -2350.2487 298.3035 -1014.6175 -984.2045 8695.3669 8.6867 10.4394
ENERGY: 360000 3.4478 2.8335 2.7679 0.0000 -3167.4331 348.8481 0.0000 0.0000 527.2840 -2282.2517 297.3013 -2809.5357 -2281.9454 294.8066 643.4610 636.4553 8827.7892 -0.1691 -0.8371
ENERGY: 450000 2.0311 2.7403 1.6590 0.0000 -3204.3827 339.8393 0.0000 0.0000 555.3567 -2302.7562 313.1297 -2858.1129 -2302.7690 303.2949 538.8516 485.4449 8638.6644 13.3603 12.7044
TCL: Running FEP window  18: Lambda1 0.8500000000000002 Lambda2 0.9000000000000002 [dLambda 0.050000000000000044]
TCL: Setting parameter firsttimestep to 0
TCL: Setting parameter alchLambda to 0.8500000000000002
Info: NONBONDED TABLE R-SQUARED SPACING: 0.0625
Info: NONBONDED TABLE SIZE: 769 POINTS
TCL: Setting parameter alchLambda2 to 0.9000000000000002
Info: NONBONDED TABLE R-SQUARED SPACING: 0.0625
Info: NONBONDED TABLE SIZE: 769 POINTS
TCL: Setting parameter alchLambdaIDWS to 0.8000000000000002
Info: NONBONDED TABLE R-SQUARED SPACING: 0.0625
Info: NONBONDED TABLE SIZE: 769 POINTS
TCL: Running for 450000 steps
ETITLE: TS BOND ANGLE DIHED IMPRP ELECT VDW BOUNDARY MISC KINETIC TOTAL TEMP POTENTIAL TOTAL3 TEMPAVG PRESSURE GPRESSURE VOLUME PRESSAVG GPRESSAVG
ENERGY: 0 2.0311 2.7403 1.6590 0.0000 -3204.3823 339.1092 0.0000 0.0000 555.2307 -2303.6119 313.0586 -2858.8426 -2303.5301 313.0586 433.5503 470.3418 8638.6644 433.5503 470.3418
ENERGY: 90000 3.6311 1.0433 2.7870 0.0000 -3200.1448 363.4634 0.0000 0.0000 524.5936 -2304.6264 295.7843 -2829.2200 -2304.3603 304.8140 1067.8021 1022.2265 8680.2420 24.6453 23.9429
ENERGY: 180000 2.5749 2.1792 4.5596 0.0000 -3198.6010 328.4389 0.0000 0.0000 512.4454 -2348.4029 288.9348 -2860.8484 -2348.1245 303.0964 -47.7604 -103.3070 8711.1436 0.5917 -0.2223
ENERGY: 270000 1.8705 2.9590 3.8542 0.0000 -3233.8371 370.2544 0.0000 0.0000 547.9397 -2306.9593 308.9477 -2854.8990 -2306.1891 294.2589 1498.4531 1570.0339 8625.8052 27.9148 28.2553
ENERGY: 360000 1.3183 0.8632 3.3568 0.0000 -3166.2956 329.5642 0.0000 0.0000 516.0564 -2315.1368 290.9707 -2831.1931 -2314.0299 300.8129 -127.5123 173.2497 8836.7990 -19.3150 -19.8589
ENERGY: 450000 3.6625 2.6457 3.1122 0.0000 -3133.2768 291.7254 0.0000 0.0000 534.1635 -2297.9674 301.1802 -2832.1309 -2297.1501 301.3426 -1188.7720 -1119.7119 8695.3196 -7.8880 -6.6057
TCL: Running FEP window  19: Lambda1 0.9000000000000002 Lambda2 0.9500000000000003 [dLambda 0.050000000000000044]
TCL: Setting parameter firsttimestep to 0
TCL: Setting parameter alchLambda to 0.9000000000000002
Info: NONBONDED TABLE R-SQUARED SPACING: 0.0625
Info: NONBONDED TABLE SIZE: 769 POINTS
TCL: Setting parameter alchLambda2 to 0.9500000000000003
Info: NONBONDED TABLE R-SQUARED SPACING: 0.0625
Info: NONBONDED TABLE SIZE: 769 POINTS
TCL: Setting parameter alchLambdaIDWS to 0.8500000000000002
Info: NONBONDED TABLE R-SQUARED SPACING: 0.0625
Info: NONBONDED TABLE SIZE: 769 POINTS
TCL: Running for 450000 steps
ETITLE: TS BOND ANGLE DIHED IMPRP ELECT VDW BOUNDARY MISC KINETIC TOTAL TEMP POTENTIAL TOTAL3 TEMPAVG PRESSURE GPRESSURE VOLUME PRESSAVG GPRESSAVG
ENERGY: 0 3.6625 2.6457 3.1122 0.0000 -3133.2770 291.2960 0.0000 0.0000 534.0361 -2298.5245 301.1083 -2832.5606 -2298.4422 301.1083 -1152.5926 -1123.2953 8695.3196 -1152.5926 -1123.2953
ENERGY: 90000 2.1132 2.1900 3.0836 0.0000 -3216.5379 350.5405 0.0000 0.0000 515.2547 -2343.3558 290.5187 -2858.6105 -2343.1026 301.3651 630.0925 601.5834 8813.1253 17.1357 17.1274
ENERGY: 180000 1.5641 6.0341 6.2430 0.0000 -3187.8558 322.0226 0.0000 0.0000 514.0633 -2337.9287 289.8469 -2851.9920 -2338.0212 303.2163 -38.1454 -1.1181 8605.1574 -7.0086 -7.4044
ENERGY: 270000 2.8562 1.8632 3.8226 0.0000 -3208.1165 360.4039 0.0000 0.0000 555.9746 -2283.1960 313.4780 -2839.1706 -2282.1854 301.1090 1629.8620 1505.3971 8622.2010 8.8193 9.6954
ENERGY: 360000 3.0773 1.7779 2.3657 0.0000 -3200.3509 297.4952 0.0000 0.0000 542.4633 -2353.1714 305.8599 -2895.6347 -2351.9051 298.4873 -1151.1122 -1264.0899 8726.8146 0.4337 1.0212
ENERGY: 450000 3.3278 2.2266 3.5085 0.0000 -3133.3607 284.2272 0.0000 0.0000 543.2069 -2296.8636 306.2791 -2840.0705 -2297.3488 300.4943 -1246.0496 -1187.4392 8635.9732 5.5478 4.9160
TCL: Running FEP window  20: Lambda1 0.9500000000000003 Lambda2 1.0    [dLambda 0.04999999999999971]
TCL: Setting parameter firsttimestep to 0
TCL: Setting parameter alchLambda to 0.9500000000000003
Info: NONBONDED TABLE R-SQUARED SPACING: 0.0625
Info: NONBONDED TABLE SIZE: 769 POINTS
TCL: Setting parameter alchLambda2 to 1.0
Info: NONBONDED TABLE R-SQUARED SPACING: 0.0625
Info: NONBONDED TABLE SIZE: 769 POINTS
TCL: Setting parameter alchLambdaIDWS to 0.9000000000000002
Info: NONBONDED TABLE R-SQUARED SPACING: 0.0625
Info: NONBONDED TABLE SIZE: 769 POINTS
TCL: Running for 450000 steps
ETITLE: TS BOND ANGLE DIHED IMPRP ELECT VDW BOUNDARY MISC KINETIC TOTAL TEMP POTENTIAL TOTAL3 TEMPAVG PRESSURE GPRESSURE VOLUME PRESSAVG GPRESSAVG
ENERGY: 0 3.3278 2.2266 3.5085 0.0000 -3133.3602 284.7165 0.0000 0.0000 543.0743 -2296.5064 306.2044 -2839.5807 -2296.1845 306.2044 -1196.7565 -1186.9218 8635.9732 -1196.7565 -1186.9218
ENERGY: 90000 2.1851 1.2151 3.6894 0.0000 -3139.0215 331.2860 0.0000 0.0000 518.2242 -2282.4217 292.1930 -2800.6459 -2281.2450 298.4963 639.5241 638.6503 8835.5877 1.2909 3.9616
ENERGY: 180000 3.4465 1.9279 3.4918 0.0000 -3217.7467 352.9883 0.0000 0.0000 557.4077 -2298.4844 314.2861 -2855.8921 -2297.8420 300.8439 953.1093 1046.2389 8729.2322 16.8001 15.5024
ENERGY: 270000 3.8855 3.2068 2.6749 0.0000 -3230.3689 357.5997 0.0000 0.0000 534.7848 -2328.2171 301.5305 -2863.0019 -2327.0783 299.5089 806.9528 790.8948 8520.3562 8.9880 7.0933
ENERGY: 360000 1.5898 3.4589 2.7260 0.0000 -3130.5492 319.5876 0.0000 0.0000 514.1720 -2289.0149 289.9083 -2803.1869 -2287.9846 299.4378 500.4424 464.1124 8711.7562 9.4779 8.8900
ENERGY: 450000 2.7827 1.9432 4.2696 0.0000 -3110.1881 322.0930 0.0000 0.0000 535.0997 -2243.9998 301.7080 -2779.0996 -2243.7724 303.0573 365.1300 556.8316 8683.2546 2.0619 1.5053
TCL: Running FEP window  21: Lambda1 1.0    Lambda2 1.0    [dLambda 0.0   ]
TCL: Setting parameter firsttimestep to 0
TCL: Setting parameter alchLambda to 1.0
Info: NONBONDED TABLE R-SQUARED SPACING: 0.0625
Info: NONBONDED TABLE SIZE: 769 POINTS
TCL: Setting parameter alchLambda2 to 0.9500000000000003
Info: NONBONDED TABLE R-SQUARED SPACING: 0.0625
Info: NONBONDED TABLE SIZE: 769 POINTS
TCL: Setting parameter alchLambdaIDWS to -1
Info: NONBONDED TABLE R-SQUARED SPACING: 0.0625
Info: NONBONDED TABLE SIZE: 769 POINTS
TCL: Running for 450000 steps
ETITLE: TS BOND ANGLE DIHED IMPRP ELECT VDW BOUNDARY MISC KINETIC TOTAL TEMP POTENTIAL TOTAL3 TEMPAVG PRESSURE GPRESSURE VOLUME PRESSAVG GPRESSAVG
ENERGY: 0 2.7827 1.9432 4.2696 0.0000 -3110.1884 322.0755 0.0000 0.0000 534.9677 -2244.1497 301.6336 -2779.1174 -2244.0309 301.6336 530.4653 556.5344 8683.2546 530.4653 556.5344
ENERGY: 90000 3.1540 7.2086 1.8615 0.0000 -3168.8610 313.7012 0.0000 0.0000 509.2195 -2333.7162 287.1159 -2842.9356 -2332.2184 296.6253 -662.6047 -542.6672 8663.1317 13.1007 13.4138
ENERGY: 180000 2.0626 1.1091 2.7252 0.0000 -3124.5532 278.0032 0.0000 0.0000 506.7686 -2333.8844 285.7340 -2840.6531 -2332.9816 297.7106 -1452.8914 -1312.7612 8698.7675 10.1949 9.4251
ENERGY: 270000 3.3995 3.8572 2.9600 0.0000 -3177.4730 320.6422 0.0000 0.0000 551.4720 -2295.1421 310.9393 -2846.6141 -2295.1497 295.5493 516.8023 542.4716 8320.8335 5.2940 7.7181
ENERGY: 360000 1.8018 3.7390 2.8625 0.0000 -3213.8456 364.5893 0.0000 0.0000 564.2580 -2276.5950 318.1485 -2840.8530 -2275.9973 304.4258 2231.4338 2149.9144 8361.9912 8.0055 8.6067
ENERGY: 450000 3.8611 1.5696 3.1280 0.0000 -3190.8544 318.4609 0.0000 0.0000 520.6138 -2343.2210 293.5404 -2863.8348 -2342.6296 298.9956 -575.2379 -384.8818 8552.3347 5.3943 4.9525
