Info: SIMULATION PARAMETERS:
Info: TIMESTEP               1
Info: NUMBER OF STEPS        0
Info: STEPS PER CYCLE        20
Info: PERIODIC CELL BASIS 1  20.7653 0 0
Info: PERIODIC CELL BASIS 2  0 20.7653 0
Info: PERIODIC CELL BASIS 3  0 0 20.7653
Info: PERIODIC CELL CENTER   -2.05638 5.08856 9.40663
Info: WRAPPING WATERS AROUND PERIODIC BOUNDARIES ON OUTPUT.
Info: FIRST LDB TIMESTEP     100
Info: LAST LDB TIMESTEP     -1
Info: HOM BACKGROUND SCALING 1
Info: PME BACKGROUND SCALING 1
Info: MIN ATOMS PER PATCH    40
Info: VELOCITY FILE          AFEP-Hyd-01.restart.vel
Info: CENTER OF MASS MOVING INITIALLY? NO
Info: DIELECTRIC             1
Info: EXCLUDE                SCALED ONE-FOUR
Info: 1-4 ELECTROSTATICS SCALED BY 1
Info: MODIFIED 1-4 VDW PARAMETERS WILL BE USED
Info: DCD FILENAME           AFEP-Hyd-02.dcd
Info: DCD FREQUENCY          10000
Info: DCD FIRST STEP         10000
Info: DCD FILE WILL CONTAIN UNIT CELL DATA
Info: XST FILENAME           AFEP-Hyd-02.xst
Info: XST FREQUENCY          10000
Info: NO VELOCITY DCD OUTPUT
Info: NO FORCE DCD OUTPUT
Info: OUTPUT FILENAME        AFEP-Hyd-02
Info: BINARY OUTPUT FILES WILL BE USED
Info: RESTART FILENAME       AFEP-Hyd-02.restart
Info: RESTART FREQUENCY      10000
Info: BINARY RESTART FILES WILL BE USED
Info: SWITCHING ACTIVE
Info: VDW FORCE SWITCHING ACTIVE
Info: SWITCHING ON           10
Info: SWITCHING OFF          12
Info: PAIRLIST DISTANCE      12
Info: PAIRLIST SHRINK RATE   0.01
Info: PAIRLIST GROW RATE     0.01
Info: PAIRLIST TRIGGER       0.3
Info: PAIRLISTS PER CYCLE    2
Info: PAIRLISTS ENABLED
Info: MARGIN                 0.444
Info: HYDROGEN GROUP CUTOFF  2.8
Info: PATCH DIMENSION        15.244
Info: ENERGY OUTPUT STEPS    10000
Info: CROSSTERM ENERGY INCLUDED IN DIHEDRAL
Info: TIMING OUTPUT STEPS    100000
Info: PRESSURE OUTPUT STEPS  10000
Info: ALCHEMICAL FEP ON
Info: FEP CURRENT LAMBDA VALUE     0
Info: FEP COMPARISON LAMBDA VALUE  0.05
Info: FEP INTRA-ALCHEMICAL NON-BONDED INTERACTIONS WILL BE RETAINED
Info: FEP INTRA-ALCHEMICAL BONDED INTERACTIONS WILL BE RETAINED
Info: FEP VDW SHIFTING COEFFICIENT 6.8
Info: FEP ELEC. ACTIVE FOR ANNIHILATED PARTICLES BETWEEN LAMBDA = 0 AND LAMBDA = 0.5
Info: FEP ELEC. ACTIVE FOR EXNIHILATED PARTICLES BETWEEN LAMBDA = 0.5 AND LAMBDA = 1
Info: FEP VDW ACTIVE FOR ANNIHILATED PARTICLES BETWEEN LAMBDA = 0 AND LAMBDA = 1
Info: FEP VDW ACTIVE FOR EXNIHILATED PARTICLES BETWEEN LAMBDA = 0 AND LAMBDA = 1
Info: FEP BOND ACTIVE FOR ANNIHILATED PARTICLES BETWEEN LAMBDA = 1 AND LAMBDA = 1
Info: FEP BOND ACTIVE FOR EXNIHILATED PARTICLES BETWEEN LAMBDA = 0 AND LAMBDA = 0
Info: LANGEVIN DYNAMICS ACTIVE
Info: LANGEVIN TEMPERATURE   300
Info: LANGEVIN USING BBK INTEGRATOR
Info: LANGEVIN DAMPING COEFFICIENT IS 1 INVERSE PS
Info: LANGEVIN DYNAMICS APPLIED TO HYDROGENS
Info: LANGEVIN PISTON PRESSURE CONTROL ACTIVE
Info:        TARGET PRESSURE IS 1.01325 BAR
Info:     OSCILLATION PERIOD IS 75 FS
Info:             DECAY TIME IS 25 FS
Info:     PISTON TEMPERATURE IS 300 K
Info:       PRESSURE CONTROL IS GROUP-BASED
Info:    INITIAL STRAIN RATE IS -2.38151e-05 -2.38151e-05 -2.38151e-05
Info:       CELL FLUCTUATION IS ISOTROPIC
Info: PARTICLE MESH EWALD (PME) ACTIVE
Info: PME TOLERANCE               1e-05
Info: PME EWALD COEFFICIENT       0.226635
Info: PME INTERPOLATION ORDER     4
Info: PME GRID DIMENSIONS         24 24 24
Info: PME MAXIMUM GRID SPACING    1
Info: FULL ELECTROSTATIC EVALUATION FREQUENCY      2
Info: USING VERLET I (r-RESPA) MTS SCHEME.
Info: C1 SPLITTING OF LONG RANGE ELECTROSTATICS
Info: PLACING ATOMS IN PATCHES BY HYDROGEN GROUPS
Info: RIGID BONDS TO HYDROGEN : ALL
Info:         ERROR TOLERANCE : 1e-06
Info:          MAX ITERATIONS : 400
Info: RIGID WATER USING SETTLE ALGORITHM
Info: RANDOM NUMBER SEED     1655152802
Info: USE HYDROGEN BONDS?    NO
Info: COORDINATE PDB         PHEN-solv.pdb
Info: STRUCTURE FILE         PHEN-solv.psf
Info: PARAMETER file: CHARMM format!
Info: PARAMETERS             ../Force-field-parameters/par_all36_prot.prm
Info: PARAMETERS             ../Force-field-parameters/par_all36_carb.prm
Info: PARAMETERS             ../Force-field-parameters/par_all36_lipid.prm
Info: PARAMETERS             ../Force-field-parameters/par_all36_na.prm
Info: PARAMETERS             ../Force-field-parameters/par_all36_cgenff.prm
Info: PARAMETERS             ../Force-field-parameters/toppar_water_ions_namd.str
Info: USING ARITHMETIC MEAN TO COMBINE L-J SIGMA PARAMETERS
Info: BINARY COORDINATES     AFEP-Hyd-01.restart.coor
Info: SKIPPING rtf SECTION IN STREAM FILE
Info: SUMMARY OF PARAMETERS:
Info: 965 BONDS
Info: 2852 ANGLES
Info: 6992 DIHEDRAL
Info: 198 IMPROPER
Info: 6 CROSSTERM
Info: 357 VDW
Info: 81 VDW_PAIRS
Info: 0 NBTHOLE_PAIRS
Info: To read alchdata from file: PHEN-solv.fep
Info: To read alchflag data from column: 5
Info: STRUCTURE SUMMARY:
Info: 889 ATOMS
Info: 597 BONDS
Info: 311 ANGLES
Info: 26 DIHEDRALS
Info: 0 IMPROPERS
Info: 0 CROSSTERMS
Info: 0 EXCLUSIONS
Info: 882 RIGID BONDS
Info: ALCH: 13 ATOMS TO DISAPPEAR IN FINAL STATE
Info: ALCH: 0 ATOMS TO APPEAR IN FINAL STATE
Info: 1785 DEGREES OF FREEDOM
Info: 299 HYDROGEN GROUPS
Info: 3 ATOMS IN LARGEST HYDROGEN GROUP
Info: 299 MIGRATION GROUPS
Info: 3 ATOMS IN LARGEST MIGRATION GROUP
Info: TOTAL MASS = 5354.61 amu
Info: TOTAL CHARGE = 1.49012e-08 e
Info: MASS DENSITY = 0.993056 g/cm^3
Info: ATOM DENSITY = 0.0992861 atoms/A^3
Info: ADDED 931 IMPLICIT EXCLUSIONS
Info: NONBONDED TABLE R-SQUARED SPACING: 0.0625
Info: NONBONDED TABLE SIZE: 769 POINTS
Info: REMOVING COM VELOCITY 0.120054 -0.17958 0.0730883
TCL: Running for 450000 steps
ETITLE: TS BOND ANGLE DIHED IMPRP ELECT VDW BOUNDARY MISC KINETIC TOTAL TEMP POTENTIAL TOTAL3 TEMPAVG PRESSURE GPRESSURE VOLUME PRESSAVG GPRESSAVG
ENERGY: 0 1.8865 1.5594 4.2357 0.0000 -3136.3982 308.3944 0.0000 0.0000 528.8124 -2291.5098 298.1630 -2820.3222 -2291.2585 298.1630 126.8857 161.6620 8953.9211 126.8857 161.6620
ENERGY: 90000 1.9934 6.2641 1.5019 0.0000 -3139.4235 299.8559 0.0000 0.0000 510.4108 -2319.3973 287.7876 -2829.8081 -2319.0428 302.3369 46.0732 166.1642 8794.8597 5.9444 7.0434
ENERGY: 180000 1.3302 3.7686 6.2324 0.0000 -3154.6963 312.8749 0.0000 0.0000 540.3148 -2290.1754 304.6485 -2830.4902 -2289.9573 304.0819 -104.5622 3.0317 8990.5782 -2.9874 -6.2899
ENERGY: 270000 2.7718 3.7251 4.4618 0.0000 -3210.7980 338.4389 0.0000 0.0000 548.6910 -2312.7096 309.3713 -2861.4005 -2311.8488 302.2921 896.3512 888.0595 8664.3700 -2.3463 -2.4588
ENERGY: 360000 2.6279 2.1985 2.8399 0.0000 -3154.9174 291.3472 0.0000 0.0000 535.5394 -2320.3646 301.9560 -2855.9040 -2319.8041 296.2896 -716.0605 -491.0647 8591.9829 -3.2907 -3.4764
ENERGY: 450000 3.4691 2.3251 1.8394 0.0000 -3190.0519 312.4621 0.0000 0.0000 537.8315 -2332.1247 303.2483 -2869.9562 -2330.9522 295.6838 -374.4178 -335.2726 8824.4620 0.8731 -0.7918
TCL: Running FEP window   2: Lambda1 0.05   Lambda2 0.1    [dLambda 0.05  ]
TCL: Setting parameter firsttimestep to 0
TCL: Setting parameter alchLambda to 0.05
Info: NONBONDED TABLE R-SQUARED SPACING: 0.0625
Info: NONBONDED TABLE SIZE: 769 POINTS
TCL: Setting parameter alchLambda2 to 0.1
Info: NONBONDED TABLE R-SQUARED SPACING: 0.0625
Info: NONBONDED TABLE SIZE: 769 POINTS
TCL: Setting parameter alchLambdaIDWS to 0.0
Info: NONBONDED TABLE R-SQUARED SPACING: 0.0625
Info: NONBONDED TABLE SIZE: 769 POINTS
TCL: Running for 450000 steps
ETITLE: TS BOND ANGLE DIHED IMPRP ELECT VDW BOUNDARY MISC KINETIC TOTAL TEMP POTENTIAL TOTAL3 TEMPAVG PRESSURE GPRESSURE VOLUME PRESSAVG GPRESSAVG
ENERGY: 0 3.4691 2.3251 1.8394 0.0000 -3188.6923 311.2039 0.0000 0.0000 537.7045 -2332.1503 303.1767 -2869.8548 -2332.2540 303.1767 -467.2726 -434.2623 8824.4620 -467.2726 -434.2623
ENERGY: 90000 2.8560 1.7189 1.6200 0.0000 -3115.4133 257.0435 0.0000 0.0000 509.8599 -2342.3150 287.4769 -2852.1749 -2341.5740 298.3031 -2190.3305 -1952.5263 9092.5863 4.8975 6.3635
ENERGY: 180000 1.5816 2.7306 5.6725 0.0000 -3195.1501 311.8509 0.0000 0.0000 537.7457 -2335.5687 303.2000 -2873.3145 -2335.2056 297.7369 -650.5066 -557.2757 8996.5945 17.9414 17.6659
ENERGY: 270000 2.7624 2.5914 3.1831 0.0000 -3167.7508 331.3069 0.0000 0.0000 540.9816 -2286.9255 305.0244 -2827.9070 -2285.9899 299.9518 732.3427 809.2600 8712.9331 15.3564 15.1315
ENERGY: 360000 0.9816 2.0735 2.4811 0.0000 -3120.6824 284.7301 0.0000 0.0000 490.0852 -2340.3308 276.3273 -2830.4161 -2339.5716 302.2879 -225.9937 -367.2346 8756.9218 4.2862 3.8622
ENERGY: 450000 2.0996 5.5551 4.6780 0.0000 -3227.9052 359.9738 0.0000 0.0000 527.4247 -2328.1740 297.3806 -2855.5987 -2327.7833 300.1069 961.4250 1000.5265 8793.4819 -14.7564 -14.7561
TCL: Running FEP window   3: Lambda1 0.1    Lambda2 0.15000000000000002 [dLambda 0.05000000000000002]
TCL: Setting parameter firsttimestep to 0
TCL: Setting parameter alchLambda to 0.1
Info: NONBONDED TABLE R-SQUARED SPACING: 0.0625
Info: NONBONDED TABLE SIZE: 769 POINTS
TCL: Setting parameter alchLambda2 to 0.15000000000000002
Info: NONBONDED TABLE R-SQUARED SPACING: 0.0625
Info: NONBONDED TABLE SIZE: 769 POINTS
TCL: Setting parameter alchLambdaIDWS to 0.05
Info: NONBONDED TABLE R-SQUARED SPACING: 0.0625
Info: NONBONDED TABLE SIZE: 769 POINTS
TCL: Running for 450000 steps
ETITLE: TS BOND ANGLE DIHED IMPRP ELECT VDW BOUNDARY MISC KINETIC TOTAL TEMP POTENTIAL TOTAL3 TEMPAVG PRESSURE GPRESSURE VOLUME PRESSAVG GPRESSAVG
ENERGY: 0 2.0996 5.5551 4.6780 0.0000 -3226.4877 359.9397 0.0000 0.0000 527.3031 -2326.9122 297.3120 -2854.2153 -2326.7605 297.3120 928.0433 965.7073 8793.4819 928.0433 965.7073
ENERGY: 20000 2.4545 1.6382 1.3926 0.0000 -3197.2343 323.5794 0.0000 0.0000 540.9993 -2327.1703 305.0345 -2868.1697 -2327.7389 297.0400 395.5215 500.9214 8724.2876 13.5276 15.3613
ENERGY: 50000 3.3798 2.2568 1.5271 0.0000 -3219.6517 332.6153 0.0000 0.0000 509.6084 -2370.2644 287.3351 -2879.8728 -2369.7062 294.2427 59.8063 240.2892 8729.7019 6.9382 8.7888
ENERGY: 70000 3.5076 3.1645 1.0195 0.0000 -3181.8111 315.9956 0.0000 0.0000 511.3226 -2346.8014 288.3017 -2858.1240 -2345.9852 297.0681 -373.7424 -391.2750 8860.8455 2.9139 3.0931
ENERGY: 100000 2.6635 4.4698 1.6334 0.0000 -3167.0657 307.6558 0.0000 0.0000 528.8455 -2321.7978 298.1817 -2850.6433 -2321.4871 295.0064 -476.2294 -382.7100 8746.6289 14.4224 14.9897
ENERGY: 120000 5.1214 2.1503 1.8246 0.0000 -3158.7380 326.1922 0.0000 0.0000 507.6768 -2315.7726 286.2461 -2823.4494 -2315.2488 300.4157 -47.1666 -125.4353 8879.5924 5.7149 4.6576
